<?xml version="1.0" encoding="UTF-8"?>

<!-- generated on 2025-04-09 00:30:02 by Eclipse SUMO netconvert Version 1.19.0
<configuration xmlns:xsi="http://www.w3.org/2001/XMLSchema-instance" xsi:noNamespaceSchemaLocation="http://sumo.dlr.de/xsd/netconvertConfiguration.xsd">

    <input>
        <sumo-net-file value="provins/provins.net.xml"/>
    </input>

    <output>
        <plain-output-prefix value="provins/provins"/>
    </output>

    <processing>
        <geometry.min-radius.fix.railways value="false"/>
        <geometry.max-grade.fix value="false"/>
        <offset.disable-normalization value="true"/>
        <lefthand value="0"/>
    </processing>

    <tls_building>
        <tls.ignore-internal-junction-jam value="1"/>
    </tls_building>

    <junctions>
        <no-turnarounds value="true"/>
        <junctions.corner-detail value="5"/>
        <junctions.limit-turn-speed value="5.50"/>
        <rectangular-lane-cut value="0"/>
    </junctions>

    <pedestrian>
        <walkingareas value="0"/>
    </pedestrian>

</configuration>
-->

<nodes version="1.16" xmlns:xsi="http://www.w3.org/2001/XMLSchema-instance" xsi:noNamespaceSchemaLocation="http://sumo.dlr.de/xsd/nodes_file.xsd">
    <location netOffset="-518112.37,-5375753.89" convBoundary="0.00,0.00,6610.40,9052.27" origBoundary="3.245584,48.534468,3.334981,48.615847" projParameter="+proj=utm +zone=31 +ellps=WGS84 +datum=WGS84 +units=m +no_defs"/>

    <node id="10092616462" x="3397.45" y="1996.62" type="priority"/>
    <node id="10092616463" x="4633.70" y="1609.14" type="priority"/>
    <node id="10092616465" x="4615.66" y="1601.31" type="priority"/>
    <node id="10116093221" x="2877.57" y="657.60" type="priority"/>
    <node id="10152611637" x="3841.01" y="2780.24" type="priority"/>
    <node id="10152611638" x="3856.81" y="2772.74" type="right_before_left"/>
    <node id="10152611639" x="3846.91" y="2729.96" type="priority"/>
    <node id="10152611759" x="4794.36" y="1815.50" type="priority"/>
    <node id="10152611760" x="4942.57" y="1854.50" type="priority"/>
    <node id="10152611762" x="4746.43" y="1609.45" type="priority"/>
    <node id="10152611763" x="4642.37" y="1609.16" type="priority"/>
    <node id="10152611768" x="3664.23" y="1784.38" type="dead_end"/>
    <node id="10152611769" x="3658.48" y="1770.28" type="priority"/>
    <node id="10152611770" x="3653.65" y="1772.72" type="priority"/>
    <node id="10152611771" x="3617.13" y="1707.84" type="priority"/>
    <node id="10152611772" x="3594.69" y="1653.22" type="priority"/>
    <node id="10152611773" x="3587.06" y="1653.07" type="priority"/>
    <node id="10152611774" x="3510.48" y="1516.80" type="priority"/>
    <node id="10152611775" x="3518.99" y="1512.72" type="priority"/>
    <node id="1037893368" x="4948.42" y="4522.47" type="priority"/>
    <node id="10690432205" x="2330.41" y="783.34" type="dead_end"/>
    <node id="10690432325" x="4124.38" y="2313.99" type="dead_end"/>
    <node id="10690432329" x="4031.31" y="2310.94" type="dead_end"/>
    <node id="1078560165" x="2729.55" y="5428.22" type="priority"/>
    <node id="10824978454" x="2604.68" y="2905.55" type="dead_end"/>
    <node id="10824978470" x="2811.38" y="3013.96" type="dead_end"/>
    <node id="10824978476" x="2760.02" y="3095.28" type="dead_end"/>
    <node id="10824978478" x="2810.63" y="3010.82" type="dead_end"/>
    <node id="10824978487" x="2781.09" y="3060.19" type="dead_end"/>
    <node id="10824978493" x="2723.77" y="3155.64" type="dead_end"/>
    <node id="10825018314" x="2762.94" y="3090.41" type="dead_end"/>
    <node id="10825018337" x="2758.19" y="3098.32" type="dead_end"/>
    <node id="10825018339" x="2742.00" y="3125.28" type="dead_end"/>
    <node id="10825018340" x="2612.86" y="2916.51" type="dead_end"/>
    <node id="10825018345" x="2671.94" y="2950.24" type="dead_end"/>
    <node id="10825018358" x="2617.01" y="2913.80" type="dead_end"/>
    <node id="10825018359" x="2779.45" y="3062.92" type="dead_end"/>
    <node id="10825018360" x="2574.68" y="2885.72" type="dead_end"/>
    <node id="10825018361" x="2668.44" y="2958.16" type="dead_end"/>
    <node id="10825018365" x="2812.28" y="3007.86" type="dead_end"/>
    <node id="10825018381" x="2592.53" y="2897.51" type="dead_end"/>
    <node id="10825018382" x="2577.41" y="2887.52" type="dead_end"/>
    <node id="10825018393" x="2792.38" y="3041.39" type="dead_end"/>
    <node id="10825018404" x="2764.63" y="3087.60" type="dead_end"/>
    <node id="10825018410" x="2817.50" y="3024.26" type="priority"/>
    <node id="10825018416" x="2773.27" y="3073.20" type="dead_end"/>
    <node id="10825018419" x="2793.30" y="3039.86" type="dead_end"/>
    <node id="10825018424" x="2914.84" y="2906.28" type="right_before_left"/>
    <node id="10825018429" x="2715.58" y="3169.27" type="dead_end"/>
    <node id="10825018444" x="2797.15" y="3033.44" type="dead_end"/>
    <node id="10825018457" x="2603.40" y="2904.70" type="dead_end"/>
    <node id="10825018459" x="2693.26" y="3206.45" type="dead_end"/>
    <node id="10825018460" x="2771.59" y="3076.01" type="dead_end"/>
    <node id="10825018495" x="2915.72" y="2896.84" type="right_before_left"/>
    <node id="10825018509" x="2730.02" y="3145.25" type="dead_end"/>
    <node id="10825018511" x="2649.14" y="3279.93" type="dead_end"/>
    <node id="10825018527" x="2708.18" y="3181.59" type="dead_end"/>
    <node id="10825018538" x="2725.36" y="3153.00" type="dead_end"/>
    <node id="10825018582" x="2743.71" y="3122.44" type="dead_end"/>
    <node id="10825018583" x="2796.26" y="3034.92" type="dead_end"/>
    <node id="10825018598" x="2731.49" y="3142.79" type="dead_end"/>
    <node id="10825018619" x="2683.82" y="3222.18" type="dead_end"/>
    <node id="10825018654" x="2650.42" y="2940.77" type="dead_end"/>
    <node id="10825018656" x="2593.50" y="2898.16" type="dead_end"/>
    <node id="10825018667" x="2809.39" y="3013.05" type="dead_end"/>
    <node id="10825018669" x="2749.59" y="3112.64" type="dead_end"/>
    <node id="10825018671" x="2576.50" y="2886.92" type="dead_end"/>
    <node id="10825018674" x="2621.84" y="2920.60" type="dead_end"/>
    <node id="10825018685" x="2685.58" y="3219.25" type="dead_end"/>
    <node id="10825018689" x="2707.58" y="3182.59" type="dead_end"/>
    <node id="10825018695" x="2554.98" y="2883.54" type="priority"/>
    <node id="10825018698" x="2751.34" y="3109.72" type="dead_end"/>
    <node id="10825018706" x="2715.06" y="3170.15" type="dead_end"/>
    <node id="10825018712" x="2809.97" y="3012.01" type="dead_end"/>
    <node id="10825018713" x="2691.27" y="3209.77" type="dead_end"/>
    <node id="10839333847" x="3918.11" y="2751.88" type="priority"/>
    <node id="10839333883" x="4765.49" y="2728.49" type="right_before_left"/>
    <node id="10839333884" x="4741.10" y="2715.32" type="dead_end"/>
    <node id="10839452186" x="2591.61" y="2962.86" type="priority"/>
    <node id="10839457911" x="2808.82" y="3245.92" type="priority"/>
    <node id="10839457915" x="2615.04" y="2923.15" type="dead_end"/>
    <node id="10839457926" x="2611.59" y="2931.08" type="dead_end"/>
    <node id="10839457927" x="2626.41" y="2922.27" type="priority"/>
    <node id="10839457934" x="2612.79" y="2951.07" type="priority"/>
    <node id="10839457936" x="2645.30" y="2960.60" type="priority"/>
    <node id="10936505649" x="2522.03" y="2767.52" type="priority"/>
    <node id="10936505658" x="2543.25" y="2600.59" type="priority"/>
    <node id="10936565310" x="4621.94" y="1776.54" type="priority"/>
    <node id="10936565311" x="4531.14" y="1768.11" type="right_before_left"/>
    <node id="10937836382" x="3655.61" y="4163.05" type="right_before_left"/>
    <node id="10942461888" x="2999.90" y="3027.12" type="priority"/>
    <node id="10942461889" x="3886.27" y="2716.22" type="priority"/>
    <node id="10942461895" x="3356.89" y="3363.72" type="priority"/>
    <node id="10942461896" x="2965.92" y="3011.00" type="priority"/>
    <node id="10942462424" x="3300.09" y="3200.27" type="right_before_left"/>
    <node id="10942462427" x="3310.86" y="3194.16" type="priority"/>
    <node id="10942462440" x="3465.80" y="3290.13" type="priority"/>
    <node id="10942462451" x="3875.21" y="2691.76" type="priority"/>
    <node id="10942462462" x="3282.98" y="2960.86" type="dead_end"/>
    <node id="10942462474" x="3605.42" y="3346.42" type="dead_end"/>
    <node id="10942462477" x="3270.56" y="2959.20" type="dead_end"/>
    <node id="10944806717" x="3118.91" y="3038.61" type="priority"/>
    <node id="10944806718" x="3067.22" y="3054.89" type="right_before_left"/>
    <node id="10944806734" x="3560.57" y="2973.25" type="priority"/>
    <node id="10944806736" x="3048.20" y="3075.05" type="priority"/>
    <node id="10944806738" x="3109.69" y="3050.06" type="priority"/>
    <node id="10944806743" x="3563.41" y="2951.66" type="priority"/>
    <node id="10944806746" x="3073.09" y="3041.95" type="priority"/>
    <node id="10944806751" x="3409.86" y="2889.14" type="priority"/>
    <node id="11235438021" x="4331.85" y="2871.71" type="priority"/>
    <node id="11235438022" x="4326.12" y="2924.94" type="right_before_left"/>
    <node id="11235438023" x="4343.58" y="2925.01" type="priority"/>
    <node id="11235438026" x="4363.76" y="2899.08" type="right_before_left"/>
    <node id="11235438028" x="4345.87" y="2902.05" type="right_before_left"/>
    <node id="11442892477" x="2807.09" y="3022.14" type="dead_end"/>
    <node id="11492610792" x="2544.74" y="2947.48" type="priority"/>
    <node id="11504401229" x="2810.80" y="556.11" type="priority"/>
    <node id="11510804765" x="2134.28" y="2900.47" type="priority"/>
    <node id="11510936199" x="3232.51" y="4508.76" type="priority"/>
    <node id="11510936201" x="3547.70" y="1895.25" type="priority"/>
    <node id="11510936202" x="3585.97" y="1870.41" type="priority"/>
    <node id="11510936208" x="3464.66" y="1951.35" type="priority"/>
    <node id="11510936240" x="3197.41" y="2134.74" type="priority"/>
    <node id="11510936241" x="3123.04" y="2178.88" type="priority"/>
    <node id="11510936249" x="2438.21" y="2648.52" type="priority"/>
    <node id="11510947798" x="4403.41" y="1716.92" type="priority"/>
    <node id="11510947833" x="4660.92" y="1764.58" type="priority"/>
    <node id="11510947855" x="3311.78" y="2048.45" type="priority"/>
    <node id="11526179083" x="3361.81" y="1447.83" type="priority"/>
    <node id="11634481173" x="4314.23" y="1056.88" type="right_before_left"/>
    <node id="11634481178" x="4160.59" y="1260.89" type="priority"/>
    <node id="11634481194" x="4094.74" y="1291.84" type="priority"/>
    <node id="11634481195" x="4452.35" y="1146.68" type="priority"/>
    <node id="11634481204" x="4386.77" y="1144.05" type="right_before_left"/>
    <node id="11634481207" x="4386.68" y="1159.25" type="right_before_left"/>
    <node id="11634481210" x="4386.40" y="1203.65" type="priority"/>
    <node id="11634481211" x="4386.95" y="1116.42" type="right_before_left"/>
    <node id="11634481213" x="4393.35" y="1097.73" type="right_before_left"/>
    <node id="11634481214" x="4489.05" y="1275.37" type="right_before_left"/>
    <node id="11634481218" x="4472.79" y="1184.95" type="priority"/>
    <node id="11634481237" x="4510.02" y="1268.78" type="right_before_left"/>
    <node id="12018562124" x="3865.28" y="2768.77" type="dead_end"/>
    <node id="12018562125" x="3920.25" y="2787.19" type="dead_end"/>
    <node id="12018562129" x="3892.86" y="2722.44" type="dead_end"/>
    <node id="12018562130" x="3878.64" y="2689.79" type="priority"/>
    <node id="12018562134" x="3886.01" y="2760.48" type="dead_end"/>
    <node id="12018562135" x="3897.22" y="2757.51" type="dead_end"/>
    <node id="12018562138" x="3838.46" y="2726.80" type="right_before_left"/>
    <node id="12018562139" x="3831.22" y="2730.85" type="priority"/>
    <node id="12018562142" x="3844.54" y="2762.19" type="right_before_left"/>
    <node id="12018562147" x="3912.33" y="2753.31" type="dead_end"/>
    <node id="12031893395" x="3855.33" y="2733.68" type="dead_end"/>
    <node id="12031893397" x="3825.09" y="2724.72" type="priority"/>
    <node id="12031893399" x="3827.15" y="2728.69" type="dead_end"/>
    <node id="12031893400" x="3828.37" y="2730.94" type="dead_end"/>
    <node id="12031893401" x="3836.85" y="2723.14" type="dead_end"/>
    <node id="12031893402" x="3837.95" y="2725.65" type="dead_end"/>
    <node id="1222774761" x="3826.52" y="739.84" type="priority"/>
    <node id="1222774765" x="4516.30" y="547.13" type="priority"/>
    <node id="1222774784" x="3603.84" y="414.10" type="priority"/>
    <node id="12285754175" x="2558.97" y="3034.36" type="right_before_left"/>
    <node id="12285754176" x="2516.07" y="3015.58" type="right_before_left"/>
    <node id="12334416099" x="2906.21" y="1468.06" type="priority"/>
    <node id="12384564857" x="3523.43" y="1622.48" type="priority"/>
    <node id="12384564858" x="3495.10" y="1639.38" type="right_before_left"/>
    <node id="12384564859" x="3449.31" y="1558.35" type="right_before_left"/>
    <node id="12384564860" x="3509.43" y="1630.83" type="right_before_left"/>
    <node id="12384564861" x="3461.35" y="1544.93" type="right_before_left"/>
    <node id="12384564862" x="3472.13" y="1483.49" type="priority"/>
    <node id="12384564863" x="3561.96" y="1608.69" type="priority"/>
    <node id="12384564865" x="3455.33" y="1548.65" type="right_before_left"/>
    <node id="12384564866" x="3394.04" y="1507.36" type="right_before_left"/>
    <node id="12384564867" x="3463.75" y="1468.35" type="right_before_left"/>
    <node id="12384564874" x="3448.00" y="1544.40" type="right_before_left"/>
    <node id="12384564880" x="3442.49" y="1548.33" type="right_before_left"/>
    <node id="12384564888" x="3443.70" y="1556.06" type="right_before_left"/>
    <node id="12384564893" x="3447.51" y="1539.92" type="right_before_left"/>
    <node id="12384564895" x="3479.22" y="1519.52" type="right_before_left"/>
    <node id="12384565212" x="3366.91" y="1457.69" type="right_before_left"/>
    <node id="12384565213" x="3347.71" y="1467.73" type="priority"/>
    <node id="12384565214" x="3374.64" y="1471.83" type="right_before_left"/>
    <node id="12384565215" x="3356.93" y="1480.61" type="priority"/>
    <node id="12384565216" x="3382.54" y="1486.28" type="right_before_left"/>
    <node id="12384565217" x="3365.01" y="1495.42" type="priority"/>
    <node id="12384565218" x="3390.23" y="1500.37" type="right_before_left"/>
    <node id="12384565219" x="3375.13" y="1508.58" type="priority"/>
    <node id="12384565220" x="3397.70" y="1514.19" type="right_before_left"/>
    <node id="12384565221" x="3385.21" y="1520.51" type="priority"/>
    <node id="12384565222" x="3405.18" y="1528.18" type="right_before_left"/>
    <node id="12384565223" x="3396.57" y="1532.73" type="priority"/>
    <node id="12384565224" x="3435.42" y="1484.21" type="right_before_left"/>
    <node id="12384565225" x="3407.63" y="1499.75" type="right_before_left"/>
    <node id="12384565226" x="3421.57" y="1491.95" type="right_before_left"/>
    <node id="12384565227" x="3448.97" y="1476.62" type="right_before_left"/>
    <node id="12384641083" x="3227.69" y="1139.19" type="priority"/>
    <node id="12384641088" x="3203.63" y="1132.23" type="priority"/>
    <node id="12384641091" x="3213.29" y="1109.41" type="priority"/>
    <node id="12384641097" x="3204.76" y="1116.05" type="priority"/>
    <node id="12384641098" x="3234.45" y="1130.77" type="priority"/>
    <node id="12384641099" x="3244.09" y="1094.93" type="priority"/>
    <node id="12384641100" x="3220.82" y="1141.46" type="priority"/>
    <node id="12384666201" x="3214.39" y="1140.97" type="priority"/>
    <node id="12384666203" x="3255.55" y="1082.04" type="priority"/>
    <node id="12384666204" x="3276.96" y="1085.59" type="priority"/>
    <node id="12384666209" x="3241.12" y="1089.80" type="priority"/>
    <node id="12384666210" x="3220.22" y="1156.30" type="priority"/>
    <node id="12384666217" x="3239.13" y="1091.43" type="priority"/>
    <node id="12384666220" x="3261.76" y="1200.43" type="right_before_left"/>
    <node id="12384666222" x="3234.51" y="1220.19" type="right_before_left"/>
    <node id="12384666225" x="3167.82" y="1180.46" type="priority"/>
    <node id="12390308736" x="2592.65" y="2954.65" type="priority"/>
    <node id="12390308742" x="2809.52" y="1625.34" type="priority"/>
    <node id="12390308745" x="2591.13" y="1370.58" type="priority"/>
    <node id="12390642059" x="5356.92" y="3893.85" type="priority"/>
    <node id="12390642063" x="4513.57" y="2627.75" type="priority"/>
    <node id="12390642064" x="4394.03" y="2615.19" type="priority"/>
    <node id="12390642067" x="3864.38" y="2698.60" type="priority"/>
    <node id="1239117051-AddedOnRampNode" x="3115.12" y="2191.56" type="priority"/>
    <node id="12698229029" x="3428.59" y="1362.56" type="priority"/>
    <node id="12698229030" x="3415.50" y="1369.73" type="right_before_left"/>
    <node id="12698229032" x="3438.67" y="1412.21" type="right_before_left"/>
    <node id="12698229034" x="3451.49" y="1404.73" type="priority"/>
    <node id="12698229035" x="3527.22" y="1628.64" type="right_before_left"/>
    <node id="12698229036" x="3498.29" y="1645.27" type="right_before_left"/>
    <node id="12698229052" x="3480.72" y="1484.15" type="dead_end"/>
    <node id="12698229055" x="3526.47" y="1473.73" type="priority"/>
    <node id="12698229056" x="3530.21" y="1482.90" type="priority"/>
    <node id="12698229059" x="3539.43" y="1466.48" type="priority"/>
    <node id="12698229060" x="3483.23" y="1506.03" type="priority"/>
    <node id="1283675910" x="3903.24" y="2780.45" type="dead_end"/>
    <node id="1283683885" x="3891.10" y="2733.60" type="dead_end"/>
    <node id="1283698611" x="3882.71" y="2747.47" type="dead_end"/>
    <node id="1283742393" x="3889.17" y="2772.95" type="dead_end"/>
    <node id="131830494" x="2226.93" y="2771.83" type="priority"/>
    <node id="131830501" x="2226.47" y="2711.23" type="dead_end"/>
    <node id="131830504" x="2238.66" y="2743.60" type="dead_end"/>
    <node id="131830868" x="2686.84" y="2954.59" type="priority"/>
    <node id="131830869" x="2788.31" y="2996.86" type="priority"/>
    <node id="131830870" x="2803.05" y="3001.26" type="priority"/>
    <node id="131867391" x="2807.29" y="3025.77" type="right_before_left"/>
    <node id="131867396" x="2704.82" y="3199.02" type="right_before_left"/>
    <node id="131867399" x="2754.50" y="3227.86" type="right_before_left"/>
    <node id="1532578485" x="5432.36" y="3858.99" type="priority"/>
    <node id="1532579486" x="5349.29" y="3860.39" type="priority"/>
    <node id="1663572576" x="4392.67" y="2215.22" type="priority"/>
    <node id="1663572582" x="4228.69" y="1963.19" type="priority"/>
    <node id="1663572590" x="3967.15" y="1829.54" type="priority"/>
    <node id="1663572633" x="4218.45" y="2048.40" type="priority"/>
    <node id="1663572641" x="4462.93" y="2193.26" type="priority"/>
    <node id="1663572648" x="4401.48" y="2172.85" type="priority"/>
    <node id="1663572666" x="4577.52" y="2342.51" type="priority"/>
    <node id="1663572674" x="4402.29" y="2206.54" type="priority"/>
    <node id="1663572680" x="4341.48" y="2216.06" type="priority"/>
    <node id="1663572697" x="4457.21" y="2312.74" type="priority"/>
    <node id="1663572701" x="4692.05" y="1815.66" type="priority"/>
    <node id="1663572705" x="4536.85" y="1770.24" type="priority"/>
    <node id="1663572707" x="4465.23" y="2298.83" type="priority"/>
    <node id="1663572709" x="4237.99" y="1863.57" type="priority"/>
    <node id="1663572713" x="4566.95" y="2297.38" type="priority"/>
    <node id="1663572714" x="4621.17" y="2021.81" type="priority"/>
    <node id="1663572719" x="4077.37" y="1892.89" type="priority"/>
    <node id="1663572725" x="4541.15" y="2329.54" type="priority"/>
    <node id="1663572730" x="4475.04" y="2271.04" type="priority"/>
    <node id="1663572732" x="4672.10" y="2128.61" type="right_before_left"/>
    <node id="1663572742" x="4178.83" y="2056.75" type="priority"/>
    <node id="1663572766" x="4205.65" y="1984.42" type="priority"/>
    <node id="1663572768" x="4254.32" y="2040.66" type="priority"/>
    <node id="1663572771" x="4562.14" y="2337.03" type="priority"/>
    <node id="1663572779" x="4612.90" y="2257.01" type="priority"/>
    <node id="1663572789" x="4479.74" y="2227.33" type="priority"/>
    <node id="1663572804" x="4200.43" y="2052.29" type="priority"/>
    <node id="1663572827" x="4373.33" y="1827.60" type="priority"/>
    <node id="1663572830" x="4247.23" y="1979.26" type="priority"/>
    <node id="1663572887" x="4221.72" y="1955.35" type="priority"/>
    <node id="1663572894" x="4625.34" y="2104.48" type="priority"/>
    <node id="1663572898" x="4227.94" y="2102.33" type="priority"/>
    <node id="1663593013" x="3898.93" y="2493.20" type="priority"/>
    <node id="1663593022" x="4161.23" y="2437.61" type="priority"/>
    <node id="1663593028" x="4175.86" y="2389.88" type="priority"/>
    <node id="1663593051" x="3845.59" y="2463.01" type="right_before_left"/>
    <node id="1663593054" x="4058.61" y="2447.19" type="priority"/>
    <node id="1663593057" x="3981.09" y="2392.66" type="priority"/>
    <node id="1663593059" x="4093.54" y="2673.31" type="priority"/>
    <node id="1663593061" x="3900.04" y="2464.60" type="priority"/>
    <node id="1663593067" x="3976.56" y="2439.97" type="priority"/>
    <node id="1663593089" x="4058.93" y="2408.48" type="priority"/>
    <node id="1663593092" x="3973.61" y="2493.41" type="priority"/>
    <node id="1663593100" x="4312.29" y="2759.82" type="priority"/>
    <node id="1663593112" x="4048.09" y="2570.17" type="priority"/>
    <node id="1663593121" x="3822.93" y="2502.59" type="priority"/>
    <node id="1663593123" x="4066.56" y="2599.55" type="priority"/>
    <node id="1663593126" x="4057.99" y="2466.21" type="priority"/>
    <node id="1663593129" x="3976.92" y="2493.19" type="priority"/>
    <node id="1663593156" x="4192.52" y="2630.46" type="priority"/>
    <node id="1663593188" x="4096.92" y="2551.70" type="priority"/>
    <node id="1663593193" x="3981.16" y="2578.58" type="priority"/>
    <node id="1663593196" x="3773.66" y="2448.52" type="priority"/>
    <node id="1663593204" x="3897.37" y="2533.66" type="priority"/>
    <node id="1663593216" x="4294.80" y="2467.27" type="priority"/>
    <node id="1663593219" x="4157.94" y="2509.96" type="priority"/>
    <node id="1663593224" x="4141.00" y="2650.05" type="priority"/>
    <node id="1663642147" x="4360.32" y="2238.31" type="priority"/>
    <node id="1663642153" x="2878.42" y="1175.12" type="priority"/>
    <node id="1663642157" x="4498.26" y="2545.84" type="right_before_left"/>
    <node id="1663642161" x="4408.47" y="2272.64" type="priority"/>
    <node id="1663642168" x="4170.02" y="2277.44" type="priority"/>
    <node id="1663642174" x="4167.57" y="2179.92" type="priority"/>
    <node id="1663642177" x="4091.24" y="2223.33" type="priority"/>
    <node id="1663642179" x="4057.75" y="2171.79" type="priority"/>
    <node id="1663642187" x="4135.33" y="2023.87" type="priority"/>
    <node id="1663642190" x="4012.83" y="2068.60" type="priority"/>
    <node id="1663642191" x="4329.32" y="2298.51" type="priority"/>
    <node id="1663642193" x="4198.63" y="2131.49" type="priority"/>
    <node id="1663642195" x="4151.33" y="2119.65" type="priority"/>
    <node id="1663642204" x="4541.10" y="2910.36" type="priority"/>
    <node id="1663642213" x="4351.88" y="2322.31" type="priority"/>
    <node id="1663642233" x="4088.51" y="2143.15" type="priority"/>
    <node id="1663642244" x="3238.15" y="1467.54" type="priority"/>
    <node id="1663642246" x="3245.73" y="1476.62" type="priority"/>
    <node id="1663672742" x="4577.83" y="3348.33" type="dead_end"/>
    <node id="1663672756" x="4262.97" y="2508.05" type="priority"/>
    <node id="1663672763" x="4613.46" y="2511.43" type="priority"/>
    <node id="1663672790" x="4218.10" y="2527.45" type="priority"/>
    <node id="1675788400" x="3236.90" y="3446.29" type="priority"/>
    <node id="1675788405" x="3081.63" y="3259.27" type="priority"/>
    <node id="1675788408" x="3442.95" y="3416.36" type="priority"/>
    <node id="1675788409" x="2770.68" y="3025.67" type="priority"/>
    <node id="1675788417" x="3154.41" y="3153.33" type="priority"/>
    <node id="1675788420" x="2754.19" y="3343.30" type="right_before_left"/>
    <node id="1675788423" x="3448.49" y="3436.36" type="priority"/>
    <node id="1675788424" x="3051.86" y="3249.78" type="priority"/>
    <node id="1675788426" x="2783.74" y="3417.09" type="priority"/>
    <node id="1675788427" x="2780.61" y="3305.65" type="right_before_left"/>
    <node id="1687073868" x="4594.25" y="3234.14" type="dead_end"/>
    <node id="1687073876" x="2527.12" y="3143.11" type="priority"/>
    <node id="1687073879" x="2590.82" y="3274.18" type="priority"/>
    <node id="1687073883" x="4527.00" y="3126.73" type="dead_end"/>
    <node id="1687073884" x="4458.64" y="3235.10" type="dead_end"/>
    <node id="1687073885" x="4446.72" y="3210.07" type="dead_end"/>
    <node id="1687073890" x="4600.63" y="3268.38" type="dead_end"/>
    <node id="1687073891" x="2588.54" y="3228.82" type="right_before_left"/>
    <node id="1687073905" x="2569.67" y="3215.49" type="right_before_left"/>
    <node id="1687073907" x="4476.16" y="3270.96" type="dead_end"/>
    <node id="1687073910" x="4566.12" y="3192.59" type="dead_end"/>
    <node id="1687073911" x="4625.20" y="3264.25" type="dead_end"/>
    <node id="1687073912" x="4400.66" y="3260.53" type="dead_end"/>
    <node id="1687073915" x="2622.44" y="3253.07" type="priority"/>
    <node id="1687073917" x="2558.65" y="3250.18" type="priority"/>
    <node id="1687073928" x="4463.69" y="3245.27" type="dead_end"/>
    <node id="1687073932" x="4578.06" y="3324.24" type="dead_end"/>
    <node id="1687073937" x="2589.13" y="3187.49" type="right_before_left"/>
    <node id="1687073938" x="2564.17" y="3254.94" type="priority"/>
    <node id="1687073940" x="2492.57" y="3192.72" type="priority"/>
    <node id="1687073948" x="4550.28" y="3194.90" type="dead_end"/>
    <node id="1687073949" x="4545.76" y="3156.42" type="dead_end"/>
    <node id="1687073951" x="2508.34" y="3172.16" type="right_before_left"/>
    <node id="1687073955" x="2630.29" y="3225.18" type="right_before_left"/>
    <node id="1687073956" x="2859.85" y="3090.66" type="priority"/>
    <node id="1687073957" x="4404.92" y="3220.55" type="dead_end"/>
    <node id="1687073961" x="4407.40" y="3278.87" type="dead_end"/>
    <node id="1687073962" x="4454.56" y="3226.87" type="dead_end"/>
    <node id="1687073964" x="4632.52" y="3314.79" type="dead_end"/>
    <node id="1687073965" x="2891.39" y="3026.78" type="priority"/>
    <node id="1687073966" x="2598.67" y="3193.75" type="right_before_left"/>
    <node id="1687073968" x="2615.49" y="3247.86" type="right_before_left"/>
    <node id="1687073971" x="4610.99" y="3318.53" type="dead_end"/>
    <node id="1687073978" x="2527.57" y="3147.07" type="right_before_left"/>
    <node id="1687124670" x="3182.60" y="4637.56" type="priority"/>
    <node id="1687124677" x="3300.11" y="4212.96" type="priority"/>
    <node id="1687124690" x="3362.90" y="3926.31" type="priority"/>
    <node id="1687124696" x="3830.61" y="3316.82" type="priority"/>
    <node id="1687124698" x="3252.17" y="4836.55" type="priority"/>
    <node id="1687124699" x="3216.31" y="4138.46" type="priority"/>
    <node id="1687124701" x="3344.23" y="4370.38" type="priority"/>
    <node id="1687124708" x="3358.72" y="3951.23" type="priority"/>
    <node id="1687124711" x="4182.67" y="3262.20" type="priority"/>
    <node id="1687124723" x="3716.93" y="3548.92" type="right_before_left"/>
    <node id="1687124735" x="3316.76" y="3901.21" type="priority"/>
    <node id="1687124739" x="3406.25" y="4294.14" type="priority"/>
    <node id="1687124743" x="3372.21" y="3567.22" type="right_before_left"/>
    <node id="1687124747" x="3357.96" y="4124.86" type="priority"/>
    <node id="1687124760" x="3346.90" y="3466.97" type="priority"/>
    <node id="1687124785" x="4179.57" y="3281.41" type="priority"/>
    <node id="1687124805" x="3400.92" y="3680.93" type="right_before_left"/>
    <node id="1687124809" x="3441.84" y="3970.46" type="priority"/>
    <node id="1687124813" x="3842.72" y="3349.29" type="priority"/>
    <node id="1687124829" x="3702.36" y="3578.85" type="priority"/>
    <node id="1687165238" x="3020.64" y="3093.37" type="priority"/>
    <node id="1687165247" x="2998.17" y="3127.43" type="priority"/>
    <node id="1687165249" x="2879.13" y="3292.31" type="priority"/>
    <node id="1687165253" x="2908.44" y="3200.80" type="priority"/>
    <node id="1687165255" x="3164.94" y="3072.74" type="priority"/>
    <node id="1687165258" x="3098.98" y="3044.28" type="priority"/>
    <node id="1687165259" x="2980.83" y="3248.98" type="priority"/>
    <node id="1687165260" x="3137.57" y="3088.68" type="priority"/>
    <node id="1687165261" x="2988.15" y="3171.44" type="priority"/>
    <node id="1687165265" x="2977.44" y="3253.09" type="priority"/>
    <node id="1687165273" x="3096.89" y="3098.36" type="priority"/>
    <node id="1687165275" x="3019.39" y="3198.74" type="priority"/>
    <node id="1687165279" x="3037.32" y="3152.21" type="priority"/>
    <node id="1687165284" x="3068.03" y="3036.59" type="priority"/>
    <node id="1687165286" x="2936.10" y="3226.97" type="priority"/>
    <node id="1687165289" x="2990.00" y="3120.45" type="priority"/>
    <node id="1687165292" x="2982.06" y="3166.10" type="priority"/>
    <node id="1687165293" x="3055.55" y="3130.33" type="priority"/>
    <node id="1687165295" x="3047.73" y="3160.40" type="priority"/>
    <node id="1687165297" x="3168.49" y="3002.54" type="priority"/>