<edges xmlns:xsi="http://www.w3.org/2001/XMLSchema-instance" version="1.16" xsi:noNamespaceSchemaLocation="http://sumo.dlr.de/xsd/edges_file.xsd">
    <location netOffset="-518112.37,-5375753.89" convBoundary="0.00,0.00,6610.40,9052.27" origBoundary="3.245584,48.534468,3.334981,48.615847" projParameter="+proj=utm +zone=31 +ellps=WGS84 +datum=WGS84 +units=m +no_defs" />

    <edge id="-1024000539#0" from="1687124785" to="430921309" priority="3" type="highway.residential" numLanes="1" speed="13.89" shape="4179.57,3281.41 4316.92,3255.99 4322.33,3256.16 4327.82,3257.16 4332.21,3259.14 4336.13,3262.16 4351.70,3281.20" disallow="tram rail_urban rail rail_electric rail_fast ship" />
    <edge id="-1024000539#1" from="3340881357" to="1687124785" priority="3" type="highway.residential" numLanes="1" speed="13.89" disallow="tram rail_urban rail rail_electric rail_fast ship" />
    <edge id="-1024000539#2" from="430920519" to="3340881357" priority="3" type="highway.residential" numLanes="1" speed="13.89" shape="4044.43,3310.28 4049.95,3309.25 4075.27,3302.09" disallow="tram rail_urban rail rail_electric rail_fast ship" />
    <edge id="-1024000539#3" from="3340881368" to="430920519" priority="3" type="highway.residential" numLanes="1" speed="13.89" shape="3998.08,3319.36 4038.48,3311.07 4044.43,3310.28" disallow="tram rail_urban rail rail_electric rail_fast ship" />
    <edge id="-1024000548" from="423413664" to="423413660" priority="4" type="highway.unclassified" numLanes="1" speed="13.89" shape="3238.17,4078.86 3217.91,4068.83 3199.50,4059.90 3063.36,4002.73 3058.71,3997.70" disallow="tram rail_urban rail rail_electric rail_fast ship" />
    <edge id="-1057740876" from="9719107989" to="9719107999" priority="4" type="highway.unclassified" numLanes="1" speed="13.89" shape="3119.06,1863.39 3079.12,1813.61 3067.38,1803.10 3043.23,1790.47 3000.52,1766.05 2986.35,1754.99 2975.02,1742.41 2964.11,1721.79 2951.79,1694.96 2943.60,1673.76" disallow="tram rail_urban rail rail_electric rail_fast ship" />
    <edge id="-1057740877#0" from="10152611762" to="9719108001" priority="4" type="highway.unclassified" numLanes="1" speed="8.33" disallow="tram rail_urban rail rail_electric rail_fast ship" />
    <edge id="-1057740877#1" from="10152611763" to="10152611762" priority="4" type="highway.unclassified" numLanes="1" speed="8.33" disallow="tram rail_urban rail rail_electric rail_fast ship" />
    <edge id="-1057740877#2" from="10092616463" to="10152611763" priority="4" type="highway.unclassified" numLanes="1" speed="8.33" shape="4633.70,1609.14 4638.97,1609.15 4642.37,1609.16" disallow="tram rail_urban rail rail_electric rail_fast ship" />
    <edge id="-1057740879" from="9719108001" to="9719108002" priority="4" type="highway.unclassified" numLanes="1" speed="13.89" disallow="tram rail_urban rail rail_electric rail_fast ship" />
    <edge id="-1057740880#0" from="9719108002" to="9719108008" priority="4" type="highway.unclassified" numLanes="1" speed="13.89" shape="4758.93,1392.64 4607.60,1344.49 4586.65,1337.35" disallow="tram rail_urban rail rail_electric rail_fast ship" />
    <edge id="-1057740880#1" from="9719108003" to="9719108002" priority="4" type="highway.unclassified" numLanes="1" speed="13.89" disallow="tram rail_urban rail rail_electric rail_fast ship" />
    <edge id="-106219259" from="1222774761" to="1222774784" priority="4" type="highway.unclassified" numLanes="1" speed="13.89" shape="3826.52,739.84 3798.31,674.04 3789.62,656.77 3783.20,644.30 3777.37,635.80 3769.49,624.21 3743.33,592.57 3699.42,541.74 3689.72,530.50 3642.62,459.20 3624.44,436.15 3603.84,414.10" disallow="tram rail_urban rail rail_electric rail_fast ship" />
    <edge id="-1079723591" from="4983153143" to="9897114285" priority="4" type="highway.unclassified" numLanes="1" speed="13.89" shape="3081.19,1273.18 3073.31,1267.98 3034.62,1243.45" disallow="tram rail_urban rail rail_electric rail_fast ship" />
    <edge id="-1079723596" from="9897114298" to="9897114302" priority="4" type="highway.unclassified" numLanes="1" speed="13.89" shape="2866.43,1280.01 2860.56,1289.56 2870.89,1296.72 2914.95,1327.27 2934.77,1339.63 2938.51,1341.96" disallow="tram rail_urban rail rail_electric rail_fast ship" />
    <edge id="-1079723603" from="5263712552" to="1766536971" priority="10" type="highway.tertiary" numLanes="1" speed="22.22" disallow="tram rail_urban rail rail_electric rail_fast ship">
        <param key="ref" value="D 1e" />
    </edge>
    <edge id="-1088466838#0" from="9972395432" to="9972369512" priority="10" type="highway.tertiary" numLanes="1" speed="22.22" disallow="tram rail_urban rail rail_electric rail_fast ship" />
    <edge id="-1088466838#1" from="1663593028" to="9972395432" priority="10" type="highway.tertiary" numLanes="1" speed="22.22" disallow="tram rail_urban rail rail_electric rail_fast ship" />
    <edge id="-1102935201" from="2511999113" to="2511999107" priority="12" type="highway.primary" numLanes="1" speed="13.89" disallow="tram rail_urban rail rail_electric rail_fast ship">
        <param key="ref" value="D 403" />
    </edge>
    <edge id="-1102935203" from="9719108000" to="10092616465" priority="11" type="highway.secondary" numLanes="1" speed="27.78" disallow="tram rail_urban rail rail_electric rail_fast ship">
        <param key="ref" value="D 1d" />
    </edge>
    <edge id="-1102935205" from="2010682070" to="9719108000" priority="11" type="highway.secondary" numLanes="1" speed="27.78" shape="4655.40,1740.91 4653.89,1733.74 4644.81,1702.87 4629.38,1649.52 4621.93,1623.41" disallow="tram rail_urban rail rail_electric rail_fast ship">
        <param key="ref" value="D 1d" />
    </edge>
    <edge id="-1109771198#0" from="10152611637" to="429515276" priority="3" type="highway.residential" numLanes="1" speed="13.89" shape="3841.01,2780.24 3841.84,2784.89 3843.09,2799.33 3842.79,2811.37" disallow="tram rail_urban rail rail_electric rail_fast ship" />
    <edge id="-1109771198#1" from="1687286936" to="10152611637" priority="3" type="highway.residential" numLanes="1" speed="13.89" shape="3837.52,2772.48 3840.76,2778.43 3841.01,2780.24" disallow="tram rail_urban rail rail_electric rail_fast ship" />
    <edge id="-1109772709" from="431325283" to="2023683308" priority="12" type="highway.primary" numLanes="1" speed="27.78" shape="5411.55,1900.84 5341.66,1902.05 5295.86,1903.08" disallow="tram rail_urban rail rail_electric rail_fast ship">
        <param key="ref" value="D 619" />
    </edge>
    <edge id="-1109772710" from="10152611760" to="10152611759" priority="12" type="highway.primary" numLanes="1" speed="27.78" shape="4942.57,1854.50 4889.97,1841.21 4794.36,1815.50" disallow="tram rail_urban rail rail_electric rail_fast ship">
        <param key="ref" value="D 619" />
    </edge>
    <edge id="-1119243207" from="423389699" to="441268024" priority="3" type="highway.residential" numLanes="1" speed="13.89" shape="2830.10,3401.49 2833.59,3405.74 2844.17,3417.31 2855.10,3427.21 2863.03,3431.58 2897.01,3434.95 2919.61,3435.21 2935.69,3435.35" disallow="tram rail_urban rail rail_electric rail_fast ship" />
    <edge id="-1119245056" from="6333711041" to="430938925" priority="3" type="highway.residential" numLanes="1" speed="13.89" disallow="tram rail_urban rail rail_electric rail_fast ship" />
    <edge id="-1119245057#0" from="423425137" to="423425148" priority="3" type="highway.residential" numLanes="1" speed="13.89" shape="4116.05,3529.20 4117.12,3512.51 4125.70,3479.64 4138.16,3435.37 4131.75,3417.93" disallow="tram rail_urban rail rail_electric rail_fast ship" />
    <edge id="-1119245057#1" from="423425135" to="423425137" priority="3" type="highway.residential" numLanes="1" speed="13.89" shape="4125.73,3593.66 4118.52,3559.21 4116.05,3529.20" disallow="tram rail_urban rail rail_electric rail_fast ship" />
    <edge id="-1119245057#2" from="3340881679" to="423425135" priority="3" type="highway.residential" numLanes="1" speed="13.89" shape="4138.39,3734.01 4141.52,3689.09 4140.82,3655.19 4129.42,3603.96 4125.73,3593.66" disallow="tram rail_urban rail rail_electric rail_fast ship" />
    <edge id="-1119245057#3" from="3340881694" to="3340881679" priority="3" type="highway.residential" numLanes="1" speed="13.89" shape="4148.04,3782.51 4140.82,3749.35 4138.39,3734.01" disallow="tram rail_urban rail rail_electric rail_fast ship" />
    <edge id="-1119245058" from="2513116050" to="3340881694" priority="3" type="highway.residential" numLanes="1" speed="13.89" shape="4175.45,3849.82 4172.89,3842.24 4164.55,3823.65 4158.35,3809.85 4149.91,3791.04 4148.04,3782.51" disallow="tram rail_urban rail rail_electric rail_fast ship" />
    <edge id="-1119245060#0" from="3340881462" to="430894463" priority="11" type="highway.secondary" numLanes="1" speed="27.78" shape="4095.94,3435.71 4087.80,3439.07 4077.08,3443.40 4069.49,3445.68 4063.59,3447.45" disallow="tram rail_urban rail rail_electric rail_fast ship">
        <param key="ref" value="D 55" />
    </edge>
    <edge id="-1119245060#1" from="423425148" to="3340881462" priority="11" type="highway.secondary" numLanes="1" speed="27.78" disallow="tram rail_urban rail rail_electric rail_fast ship">
        <param key="ref" value="D 55" />
    </edge>
    <edge id="-1119245060#2" from="8916107651" to="423425148" priority="11" type="highway.secondary" numLanes="1" speed="27.78" disallow="tram rail_urban rail rail_electric rail_fast ship">
        <param key="ref" value="D 55" />
    </edge>
    <edge id="-1119245061" from="3340881416" to="8916107651" priority="11" type="highway.secondary" numLanes="1" speed="27.78" shape="4214.57,3375.39 4208.33,3378.47 4157.08,3404.82 4146.86,3410.32" disallow="tram rail_urban rail rail_electric rail_fast ship">
        <param key="ref" value="D 55" />
    </edge>
    <edge id="-1119245070" from="429653579" to="430895473" priority="3" type="highway.residential" numLanes="1" speed="13.89" shape="3985.80,2882.23 3986.21,2890.80 3986.26,2897.75" disallow="tram rail_urban rail rail_electric rail_fast ship" />
    <edge id="-1119245071" from="430895473" to="430901229" priority="3" type="highway.residential" numLanes="1" speed="13.89" shape="3986.26,2897.75 3990.37,2929.80 3995.70,2969.01" disallow="tram rail_urban rail rail_electric rail_fast ship" />
    <edge id="-1119245074" from="1687165259" to="1687165275" priority="3" type="highway.residential" numLanes="1" speed="13.89" shape="2980.83,3248.98 3003.36,3221.55 3019.39,3198.74" disallow="tram rail_urban rail rail_electric rail_fast ship" />
    <edge id="-1119245692" from="621155637" to="423353694" priority="3" type="highway.residential" numLanes="1" speed="13.89" shape="4134.00,2785.61 4115.23,2794.64 4101.00,2768.04" disallow="tram rail_urban rail rail_electric rail_fast ship" />
    <edge id="-1119245693" from="7257331823" to="621155637" priority="3" type="highway.residential" numLanes="1" speed="13.89" disallow="tram rail_urban rail rail_electric rail_fast ship" />
    <edge id="-1162674260" from="9972395328" to="431334400" priority="10" type="highway.tertiary" numLanes="1" speed="22.22" disallow="tram rail_urban rail rail_electric rail_fast ship">
        <param key="ref" value="D 1" />
    </edge>
    <edge id="-1165362989" from="3254769439" to="10839457927" priority="2" type="highway.living_street" numLanes="1" speed="2.78" shape="2634.77,2903.39 2627.48,2919.86 2626.41,2922.27" disallow="tram rail_urban rail rail_electric rail_fast ship" />
    <edge id="-1165362990#0" from="3204645334" to="10839457934" priority="2" type="highway.living_street" numLanes="1" speed="2.78" shape="2620.98,2934.55 2619.30,2937.93 2612.79,2951.07" disallow="tram rail_urban rail rail_electric rail_fast ship" />
    <edge id="-1165362990#1" from="10839457927" to="3204645334" priority="2" type="highway.living_street" numLanes="1" speed="2.78" disallow="tram rail_urban rail rail_electric rail_fast ship" />
    <edge id="-1237369283" from="3204643489" to="418600284" priority="4" type="highway.unclassified" numLanes="1" speed="13.89" shape="2450.23,2817.25 2417.60,2805.21 2388.52,2791.85 2368.91,2784.19 2358.76,2779.02 2357.79,2773.89" disallow="tram rail_urban rail rail_electric rail_fast ship" />
    <edge id="-1237371405" from="11492610792" to="3204645804" priority="3" type="highway.residential" numLanes="1" speed="13.89" disallow="tram rail_urban rail rail_electric rail_fast ship" />
    <edge id="-1238426234#0" from="3469068912" to="418609058" priority="12" type="highway.primary" numLanes="1" speed="13.89" shape="3046.14,2192.13 3037.20,2152.45 3036.99,2145.62" disallow="tram rail_urban rail rail_electric rail_fast ship">
        <param key="ref" value="D 403" />
    </edge>
    <edge id="-1238426236" from="1767323500" to="1767322357" priority="3" type="highway.residential" numLanes="1" speed="13.89" disallow="tram rail_urban rail rail_electric rail_fast ship" />
    <edge id="-1238426237" from="1767285014" to="5263712552" priority="10" type="highway.tertiary" numLanes="1" speed="22.22" shape="2574.65,692.39 2592.79,701.44 2618.47,716.15 2670.23,748.71 2725.53,783.65 2805.92,835.08 2872.63,878.04 2893.63,888.30 2937.31,906.23 2948.46,910.94 2981.34,924.85 3020.27,942.55 3050.47,959.30 3083.06,986.41 3110.09,1012.18 3128.82,1031.20 3163.15,1063.11 3180.83,1079.82 3185.90,1084.60" disallow="tram rail_urban rail rail_electric rail_fast ship">
        <param key="ref" value="D 1e" />
    </edge>
    <edge id="-1238426239" from="1767302209" to="1767302227" priority="4" type="highway.unclassified" numLanes="1" speed="13.89" shape="2975.63,377.15 2979.98,382.14 2985.96,388.83 2996.80,403.67 3014.13,428.80 3032.04,456.32 3050.74,487.38 3064.11,510.33 3074.72,531.89 3080.02,545.13 3081.96,556.39 3082.89,571.40 3080.46,585.21 3076.84,601.18 3073.43,612.61 3070.42,624.84 3068.79,635.11 3061.33,722.53 3061.51,728.25 3062.88,734.37 3066.82,738.33" disallow="tram rail_urban rail rail_electric rail_fast ship" />
    <edge id="-1238426242" from="1767344724" to="1767322317" priority="3" type="highway.residential" numLanes="1" speed="13.89" shape="3659.49,1265.44 3658.25,1273.83 3654.21,1297.10" disallow="tram rail_urban rail rail_electric rail_fast ship" />
    <edge id="-1238426243" from="5777445927" to="1767344707" priority="3" type="highway.residential" numLanes="1" speed="13.89" disallow="tram rail_urban rail rail_electric rail_fast ship" />
    <edge id="-1238948418#0" from="9897124748" to="2511985648" priority="10" type="highway.tertiary" numLanes="1" speed="22.22" disallow="tram rail_urban rail rail_electric rail_fast ship">
        <param key="ref" value="D 1f" />
    </edge>
    <edge id="-1239117016#0" from="3471018057" to="3974640291" priority="4" type="highway.unclassified" numLanes="1" speed="13.89" disallow="tram rail_urban rail rail_electric rail_fast ship" />
    <edge id="-1239117016#1" from="3974576101" to="3471018057" priority="4" type="highway.unclassified" numLanes="1" speed="13.89" disallow="tram rail_urban rail rail_electric rail_fast ship" />
    <edge id="-1239117016#2" from="4980006045" to="3974576101" priority="4" type="highway.unclassified" numLanes="1" speed="13.89" shape="4909.64,2706.97 4907.11,2702.82 4903.55,2698.96 4898.80,2696.36 4891.68,2693.76 4865.28,2684.24 4836.77,2672.06 4807.80,2656.73 4781.09,2639.91 4758.70,2623.70 4734.09,2602.76 4709.64,2575.16 4701.62,2565.51" disallow="tram rail_urban rail rail_electric rail_fast ship" />
    <edge id="-1239117018" from="2962483937" to="1687124670" priority="3" type="highway.residential" numLanes="1" speed="13.89" shape="3075.34,4948.46 3099.28,4910.63 3123.67,4866.24 3148.98,4803.84 3172.95,4758.38 3180.47,4734.89 3182.68,4713.08 3182.60,4637.56" disallow="tram rail_urban rail rail_electric rail_fast ship" />
    <edge id="-1239117021" from="1687124701" to="11510936199" priority="4" type="highway.unclassified" numLanes="1" speed="13.89" shape="3344.23,4370.38 3264.03,4464.88 3232.51,4508.76" disallow="tram rail_urban rail rail_electric rail_fast ship" />
    <edge id="-1239117024" from="429478908" to="3974531856" priority="3" type="highway.residential" numLanes="1" speed="13.89" shape="3672.23,2081.42 3668.17,2064.68 3657.94,2049.44 3588.06,1949.51 3581.12,1938.67 3578.37,1931.84 3576.74,1919.71 3575.08,1911.30 3572.35,1902.42 3565.21,1887.90 3557.83,1876.17 3553.47,1870.57 3548.94,1865.02 3542.68,1858.95 3529.46,1849.23 3511.69,1838.30 3498.47,1825.23 3481.14,1802.46 3425.42,1723.11 3369.70,1645.14 3320.47,1577.05 3304.01,1553.99" disallow="tram rail_urban rail rail_electric rail_fast ship" />
    <edge id="-1239117045" from="429520308" to="3262396875" priority="10" type="highway.tertiary" numLanes="1" speed="22.22" shape="4009.44,1633.31 4052.85,1683.70 4064.25,1697.36 4092.68,1730.27 4110.98,1746.13 4191.06,1804.56" disallow="tram rail_urban rail rail_electric rail_fast ship">
        <param key="ref" value="D 1" />
    </edge>
    <edge id="-1299820133" from="430901229" to="430912564" priority="3" type="highway.residential" numLanes="1" speed="13.89" shape="3995.70,2969.01 3996.18,2972.27 3997.00,2978.01 4020.26,3141.16 4020.75,3145.63 4021.25,3150.09" disallow="tram rail_urban rail rail_electric rail_fast ship" />
    <edge id="-1339478328#0" from="3471386122" to="429504429" priority="10" type="highway.tertiary" numLanes="1" speed="13.89" shape="3232.03,2738.29 3246.15,2737.72 3355.37,2732.10 3362.74,2731.55 3373.24,2730.95" disallow="tram rail_urban rail rail_electric rail_fast ship" />
    <edge id="-1339478331#1" from="12390308742" to="2511999107" priority="12" type="highway.primary" numLanes="1" speed="13.89" shape="2809.52,1625.34 2750.80,1560.02 2747.93,1556.83" disallow="tram rail_urban rail rail_electric rail_fast ship">
        <param key="ref" value="D 403" />
    </edge>
    <edge id="-1339478332#0" from="3974531848" to="1766515560" priority="12" type="highway.primary" numLanes="1" speed="13.89" disallow="tram rail_urban rail rail_electric rail_fast ship">
        <param key="ref" value="D 403" />
    </edge>
    <edge id="-1339478332#1" from="12390308745" to="3974531848" priority="12" type="highway.primary" numLanes="1" speed="13.89" disallow="tram rail_urban rail rail_electric rail_fast ship">
        <param key="ref" value="D 403" />
    </edge>
    <edge id="-1339510606#0" from="2513116129" to="2513116272" priority="11" type="highway.secondary" numLanes="1" speed="22.22" shape="5368.30,4272.88 5362.75,4288.02 5340.83,4347.99" disallow="tram rail_urban rail rail_electric rail_fast ship">
        <param key="ref" value="D 1a" />
    </edge>
    <edge id="-1339510606#1" from="12390642059" to="2513116129" priority="11" type="highway.secondary" numLanes="1" speed="22.22" shape="5356.92,3893.85 5361.08,3914.19 5382.01,4068.55 5388.12,4122.05 5387.67,4181.42 5379.55,4232.68 5368.30,4272.88" disallow="tram rail_urban rail rail_electric rail_fast ship">
        <param key="ref" value="D 1a" />
    </edge>
    <edge id="-1339510609#0" from="429655331" to="12390642063" priority="11" type="highway.secondary" numLanes="1" speed="13.89" shape="4488.68,2614.16 4499.61,2618.14 4513.57,2627.75" disallow="tram rail_urban rail rail_electric rail_fast ship" />
    <edge id="-1339510610" from="429655333" to="12390642064" priority="11" type="highway.secondary" numLanes="1" speed="13.89" shape="4437.02,2618.02 4424.42,2616.68 4394.03,2615.19" disallow="tram rail_urban rail rail_electric rail_fast ship">
        <param key="ref" value="D 74" />
    </edge>
    <edge id="-1371061454" from="1767325521" to="1767335324" priority="3" type="highway.residential" numLanes="1" speed="13.89" disallow="tram rail_urban rail rail_electric rail_fast ship" />
    <edge id="-13937774#0" from="423359653" to="3204643489" priority="3" type="highway.residential" numLanes="1" speed="13.89" shape="2488.87,2828.62 2467.46,2823.47 2450.23,2817.25" disallow="tram rail_urban rail rail_electric rail_fast ship" />
    <edge id="-13937774#1" from="423361227" to="423359653" priority="3" type="highway.residential" numLanes="1" speed="13.89" shape="2570.05,2854.39 2555.51,2845.75 2530.84,2837.20 2488.87,2828.62" disallow="tram rail_urban rail rail_electric rail_fast ship" />
    <edge id="-139832421#0" from="1532578485" to="5318265357" priority="3" type="highway.residential" numLanes="1" speed="13.89" shape="5432.36,3858.99 5439.68,3868.51 5446.82,3883.00 5452.84,3897.45 5460.23,3911.58 5471.44,3928.53 5525.79,4007.54 5568.05,4065.48 5571.76,4079.73 5572.30,4090.25 5574.24,4105.34 5575.18,4111.51 5578.52,4117.88 5585.82,4127.25 5658.07,4194.50 5671.81,4215.73 5677.11,4228.28 5680.10,4242.21 5684.71,4272.22 5689.32,4306.95 5691.86,4333.04 5697.83,4351.96 5711.96,4390.65 5744.11,4483.41 5745.90,4488.94" disallow="tram rail_urban rail rail_electric rail_fast ship" />
    <edge id="-139832421#1" from="1532579486" to="1532578485" priority="3" type="highway.residential" numLanes="1" speed="13.89" shape="5349.29,3860.39 5354.00,3858.32 5373.15,3849.01 5396.04,3845.66 5405.18,3845.80 5415.37,3847.81 5423.96,3851.58 5432.36,3858.99" disallow="tram rail_urban rail rail_electric rail_fast ship" />
    <edge id="-153730003#0" from="1663572730" to="1663572789" priority="3" type="highway.residential" numLanes="1" speed="13.89" disallow="tram rail_urban rail rail_electric rail_fast ship" />
    <edge id="-153730003#1" from="1663572707" to="1663572730" priority="3" type="highway.residential" numLanes="1" speed="13.89" disallow="tram rail_urban rail rail_electric rail_fast ship" />
    <edge id="-153730003#2" from="1663572697" to="1663572707" priority="3" type="highway.residential" numLanes="1" speed="13.89" disallow="tram rail_urban rail rail_electric rail_fast ship" />
    <edge id="-153730008#0" from="1663572768" to="429520296" priority="3" type="highway.residential" numLanes="1" speed="13.89" shape="4254.32,2040.66 4269.16,2066.63 4281.32,2080.26" disallow="tram rail_urban rail rail_electric rail_fast ship" />
    <edge id="-153730008#1" from="1663572830" to="1663572768" priority="3" type="highway.residential" numLanes="1" speed="13.89" shape="4247.23,1979.26 4245.15,2005.50 4247.66,2022.08 4254.32,2040.66" disallow="tram rail_urban rail rail_electric rail_fast ship" />
    <edge id="-153730008#2" from="429520299" to="1663572830" priority="3" type="highway.residential" numLanes="1" speed="13.89" shape="4271.86,1910.34 4266.41,1940.97 4251.83,1969.01 4247.23,1979.26" disallow="tram rail_urban rail rail_electric rail_fast ship" />
    <edge id="-153730009#0" from="1663572713" to="1663572779" priority="3" type="highway.residential" numLanes="1" speed="13.89" shape="4566.95,2297.38 4572.73,2284.30 4589.94,2254.95 4609.32,2261.34 4612.90,2257.01" disallow="tram rail_urban rail rail_electric rail_fast ship" />
    <edge id="-153730009#1" from="1663572730" to="1663572713" priority="3" type="highway.residential" numLanes="1" speed="13.89" shape="4475.04,2271.04 4549.22,2292.28 4566.95,2297.38" disallow="tram rail_urban rail rail_electric rail_fast ship" />
    <edge id="-153730010#0" from="1663572771" to="1663572725" priority="3" type="highway.residential" numLanes="1" speed="13.89" disallow="tram rail_urban rail rail_electric rail_fast ship" />
    <edge id="-153730010#1" from="1663572666" to="1663572771" priority="3" type="highway.residential" numLanes="1" speed="13.89" disallow="tram rail_urban rail rail_electric rail_fast ship" />
    <edge id="-153730010#2" from="431336421" to="1663572666" priority="3" type="highway.residential" numLanes="1" speed="13.89" disallow="tram rail_urban rail rail_electric rail_fast ship" />
    <edge id="-153730011" from="429520294" to="1663572898" priority="3" type="highway.residential" numLanes="1" speed="13.89" shape="4293.18,2122.62 4275.77,2119.49 4258.97,2113.31 4227.94,2102.33" disallow="tram rail_urban rail rail_electric rail_fast ship" />
    <edge id="-153730013#0" from="1663572633" to="1663572768" priority="3" type="highway.residential" numLanes="1" speed="13.89" disallow="tram rail_urban rail rail_electric rail_fast ship" />
    <edge id="-153730013#1" from="1663572804" to="1663572633" priority="3" type="highway.residential" numLanes="1" speed="13.89" disallow="tram rail_urban rail rail_electric rail_fast ship" />
    <edge id="-153730013#2" from="1663572742" to="1663572804" priority="3" type="highway.residential" numLanes="1" speed="13.89" disallow="tram rail_urban rail rail_electric rail_fast ship" />
    <edge id="-153730014#0" from="1663572766" to="1663572582" priority="3" type="highway.residential" numLanes="1" speed="13.89" disallow="tram rail_urban rail rail_electric rail_fast ship" />
    <edge id="-153730014#1" from="1663572804" to="1663572766" priority="3" type="highway.residential" numLanes="1" speed="13.89" shape="4200.43,2052.29 4191.64,2008.20 4192.90,2003.51 4197.69,1994.45 4205.65,1984.42" disallow="tram rail_urban rail rail_electric rail_fast ship" />
    <edge id="-153730015#0" from="1663572680" to="429520292" priority="3" type="highway.residential" numLanes="1" speed="13.89" disallow="tram rail_urban rail rail_electric rail_fast ship" />
    <edge id="-153730015#1" from="3974640257" to="1663572680" priority="3" type="highway.residential" numLanes="1" speed="13.89" disallow="tram rail_urban rail rail_electric rail_fast ship" />
    <edge id="-153730015#2" from="3974637330" to="3974640257" priority="3" type="highway.residential" numLanes="1" speed="13.89" shape="4367.39,1909.31 4348.38,2129.45 4344.48,2168.75" disallow="tram rail_urban rail rail_electric rail_fast ship" />
    <edge id="-153730015#3" from="1663572827" to="3974637330" priority="3" type="highway.residential" numLanes="1" speed="13.89" shape="4373.33,1827.60 4369.54,1884.42 4367.39,1909.31" disallow="tram rail_urban rail rail_electric rail_fast ship" />
    <edge id="-153730016#0" from="1663572674" to="1663572641" priority="3" type="highway.residential" numLanes="1" speed="13.89" shape="4402.29,2206.54 4408.53,2204.86 4433.65,2200.16 4441.19,2196.49 4462.93,2193.26" disallow="tram rail_urban rail rail_electric rail_fast ship" />
    <edge id="-153730016#1" from="1663572576" to="1663572674" priority="3" type="highway.residential" numLanes="1" speed="13.89" disallow="tram rail_urban rail rail_electric rail_fast ship" />
    <edge id="-153730017" from="1663572633" to="1663572766" priority="3" type="highway.residential" numLanes="1" speed="13.89" disallow="tram rail_urban rail rail_electric rail_fast ship" />
    <edge id="-153730018" from="1663572709" to="1663572719" priority="3" type="highway.residential" numLanes="1" speed="13.89" shape="4237.99,1863.57 4231.28,1859.00 4115.80,1829.54 4104.92,1828.11 4095.99,1833.40 4092.40,1839.50 4083.33,1880.33 4077.37,1892.89" disallow="tram rail_urban rail rail_electric rail_fast ship" />
    <edge id="-153730020#0" from="1663572719" to="1663572590" priority="3" type="highway.residential" numLanes="1" speed="13.89" shape="4077.37,1892.89 4041.39,1876.41 3967.15,1829.54" disallow="tram rail_urban rail rail_electric rail_fast ship" />
    <edge id="-153730020#1" from="1663572887" to="1663572719" priority="3" type="highway.residential" numLanes="1" speed="13.89" shape="4221.72,1955.35 4208.99,1941.02 4192.80,1929.50 4100.16,1908.34 4077.37,1892.89" disallow="tram rail_urban rail rail_electric rail_fast ship" />
    <edge id="-153730020#2" from="1663572582" to="1663572887" priority="3" type="highway.residential" numLanes="1" speed="13.89" disallow="tram rail_urban rail rail_electric rail_fast ship" />
    <edge id="-153730020#3" from="1663572830" to="1663572582" priority="3" type="highway.residential" numLanes="1" speed="13.89" disallow="tram rail_urban rail rail_electric rail_fast ship" />
    <edge id="-153730022#0" from="3974576076" to="1663572894" priority="3" type="highway.residential" numLanes="1" speed="13.89" shape="4527.84,2234.27 4538.77,2232.44 4553.06,2223.02 4569.37,2203.75 4584.14,2171.83 4593.74,2147.41 4601.39,2131.92 4610.58,2119.15 4625.34,2104.48" disallow="tram rail_urban rail rail_electric rail_fast ship" />
    <edge id="-153730022#1" from="1663572789" to="3974576076" priority="3" type="highway.residential" numLanes="1" speed="13.89" shape="4479.74,2227.33 4524.91,2234.76 4527.84,2234.27" disallow="tram rail_urban rail rail_electric rail_fast ship" />
    <edge id="-153730022#2" from="1663572576" to="1663572789" priority="3" type="highway.residential" numLanes="1" speed="13.89" disallow="tram rail_urban rail rail_electric rail_fast ship" />
    <edge id="-153730022#3" from="1663572680" to="1663572576" priority="3" type="highway.residential" numLanes="1" speed="13.89" shape="4341.48,2216.06 4351.65,2212.64 4365.46,2212.41 4392.67,2215.22" disallow="tram rail_urban rail rail_electric rail_fast ship" />
    <edge id="-153730023" from="1663572674" to="1663572648" priority="3" type="highway.residential" numLanes="1" speed="13.89" disallow="tram rail_urban rail rail_electric rail_fast ship" />
    <edge id="-153730925#0" from="1663593067" to="1663593092" priority="3" type="highway.residential" numLanes="1" speed="13.89" shape="3976.56,2439.97 3974.11,2458.90 3973.61,2493.41" disallow="tram rail_urban rail rail_electric rail_fast ship" />
    <edge id="-153730925#1" from="1663593057" to="1663593067" priority="3" type="highway.residential" numLanes="1" speed="13.89" disallow="tram rail_urban rail rail_electric rail_fast ship" />
    <edge id="-153730928" from="429482598" to="429483201" priority="3" type="highway.residential" numLanes="1" speed="13.89" shape="3584.64,2582.26 3641.88,2529.83 3698.87,2476.44" disallow="tram rail_urban rail rail_electric rail_fast ship" />
    <edge id="-153730933#0" from="1663593092" to="1663593013" priority="3" type="highway.residential" numLanes="1" speed="13.89" shape="3973.61,2493.41 3954.18,2495.19 3936.57,2495.33 3898.93,2493.20" disallow="tram rail_urban rail rail_electric rail_fast ship" />