<?xml version="1.0" encoding="UTF-8"?>

<!-- generated on 2025-04-08 22:43:37 by Eclipse SUMO netconvert Version 1.19.0
<configuration xmlns:xsi="http://www.w3.org/2001/XMLSchema-instance" xsi:noNamespaceSchemaLocation="http://sumo.dlr.de/xsd/netconvertConfiguration.xsd">

    <input>
        <sumo-net-file value="nemours/nemours.net.xml"/>
    </input>

    <output>
        <plain-output-prefix value="nemours/nemours"/>
    </output>

    <processing>
        <geometry.min-radius.fix.railways value="false"/>
        <geometry.max-grade.fix value="false"/>
        <offset.disable-normalization value="true"/>
        <lefthand value="0"/>
    </processing>

    <tls_building>
        <tls.ignore-internal-junction-jam value="1"/>
    </tls_building>

    <junctions>
        <no-turnarounds value="true"/>
        <junctions.corner-detail value="5"/>
        <junctions.limit-turn-speed value="5.50"/>
        <rectangular-lane-cut value="0"/>
    </junctions>

    <pedestrian>
        <walkingareas value="0"/>
    </pedestrian>

</configuration>
-->

<connections version="1.16" xmlns:xsi="http://www.w3.org/2001/XMLSchema-instance" xsi:noNamespaceSchemaLocation="http://sumo.dlr.de/xsd/connections_file.xsd">
    <connection from="-1016218910#0" to="204285935#1" fromLane="0" toLane="0"/>
    <connection from="-1016218910#0" to="-204154277#1" fromLane="0" toLane="0"/>
    <connection from="-1016218910#0" to="-177092051#0" fromLane="0" toLane="0"/>
    <connection from="-1016218910#0" to="-204285935#0" fromLane="0" toLane="0"/>
    <connection from="-1016218910#0" to="177092051#1" fromLane="0" toLane="0"/>

    <connection from="-1016218910#1" to="-1016218910#0" fromLane="0" toLane="0"/>
    <connection from="-1016218910#1" to="355750990" fromLane="0" toLane="0"/>
    <connection from="-1016218910#1" to="1016218910#1" fromLane="0" toLane="0"/>

    <connection from="-1016223781" to="-666960480#3" fromLane="0" toLane="0"/>

    <connection from="-1020619869#0" to="366394533#6" fromLane="0" toLane="0"/>
    <connection from="-1020619869#0" to="1020619869#0" fromLane="0" toLane="0"/>

    <connection from="-1020619869#1" to="1160463746#2" fromLane="0" toLane="0"/>
    <connection from="-1020619869#1" to="-1020619869#0" fromLane="0" toLane="0"/>
    <connection from="-1020619869#1" to="1020619869#1" fromLane="0" toLane="0"/>

    <connection from="-1020619869#2" to="-1020619869#1" fromLane="0" toLane="0"/>
    <connection from="-1020619869#2" to="366394533#3" fromLane="0" toLane="0"/>
    <connection from="-1020619869#2" to="1020619869#2" fromLane="0" toLane="0"/>

    <connection from="-1021706390" to="-333299738#2" fromLane="0" toLane="0"/>
    <connection from="-1021706390" to="333299738#3" fromLane="0" toLane="0"/>
    <connection from="-1021706390" to="1021706390" fromLane="0" toLane="0"/>

    <connection from="-1021706391#0" to="1021706391#0" fromLane="0" toLane="0"/>

    <connection from="-1021706391#1" to="-1021706390" fromLane="0" toLane="0"/>
    <connection from="-1021706391#1" to="-1021706391#0" fromLane="0" toLane="0"/>
    <connection from="-1021706391#1" to="1021706391#1" fromLane="0" toLane="0"/>

    <connection from="-1021706392#0" to="-583556599#0" fromLane="0" toLane="0"/>
    <connection from="-1021706392#0" to="-583555041#1" fromLane="0" toLane="0"/>
    <connection from="-1021706392#0" to="583556599#1" fromLane="0" toLane="0"/>

    <connection from="-1021706392#1" to="-1021706392#0" fromLane="0" toLane="0"/>
    <connection from="-1021706392#1" to="1021706393" fromLane="0" toLane="0"/>
    <connection from="-1021706392#1" to="1021706392#1" fromLane="0" toLane="0"/>

    <connection from="-1021706392#2" to="-1021706392#1" fromLane="0" toLane="0"/>
    <connection from="-1021706392#2" to="-1021706393" fromLane="0" toLane="0"/>
    <connection from="-1021706392#2" to="1021706392#2" fromLane="0" toLane="0"/>

    <connection from="-1021706392#3" to="-1021706391#1" fromLane="0" toLane="0"/>
    <connection from="-1021706392#3" to="-1021706392#2" fromLane="0" toLane="0"/>
    <connection from="-1021706392#3" to="1021706392#3" fromLane="0" toLane="0"/>

    <connection from="-1021706393" to="1021706392#1" fromLane="0" toLane="0"/>
    <connection from="-1021706393" to="-1021706392#0" fromLane="0" toLane="0"/>
    <connection from="-1021706393" to="1021706393" fromLane="0" toLane="0"/>

    <connection from="-1021706394" to="1021706394" fromLane="0" toLane="0"/>

    <connection from="-1044143726" to="583457281#1" fromLane="0" toLane="0"/>
    <connection from="-1044143726" to="-583457281#0" fromLane="0" toLane="0"/>
    <connection from="-1044143726" to="1044143726" fromLane="0" toLane="0"/>

    <connection from="-1046796053" to="1046796053" fromLane="0" toLane="0"/>

    <connection from="-1062593532" to="-1062593537#0" fromLane="0" toLane="0"/>
    <connection from="-1062593532" to="1062593537#1" fromLane="0" toLane="0"/>
    <connection from="-1062593532" to="1062593532" fromLane="0" toLane="0"/>

    <connection from="-1062593533" to="-1062593537#1" fromLane="0" toLane="0"/>
    <connection from="-1062593533" to="1062593537#2" fromLane="0" toLane="0"/>
    <connection from="-1062593533" to="1062593533" fromLane="0" toLane="0"/>

    <connection from="-1062593534" to="-1062593538#3" fromLane="0" toLane="0"/>
    <connection from="-1062593534" to="1062593538#4" fromLane="0" toLane="0"/>
    <connection from="-1062593534" to="1062593534" fromLane="0" toLane="0"/>

    <connection from="-1062593535" to="-1062593537#3" fromLane="0" toLane="0"/>
    <connection from="-1062593535" to="1062593537#4" fromLane="0" toLane="0"/>
    <connection from="-1062593535" to="1062593535" fromLane="0" toLane="0"/>

    <connection from="-1062593536" to="-1062593537#4" fromLane="0" toLane="0"/>
    <connection from="-1062593536" to="1062593537#5" fromLane="0" toLane="0"/>
    <connection from="-1062593536" to="1062593536" fromLane="0" toLane="0"/>

    <connection from="-1062593537#0" to="1062593537#0" fromLane="0" toLane="0"/>

    <connection from="-1062593537#1" to="1062593532" fromLane="0" toLane="0"/>
    <connection from="-1062593537#1" to="-1062593537#0" fromLane="0" toLane="0"/>
    <connection from="-1062593537#1" to="1062593537#1" fromLane="0" toLane="0"/>

    <connection from="-1062593537#2" to="1062593533" fromLane="0" toLane="0"/>
    <connection from="-1062593537#2" to="-1062593537#1" fromLane="0" toLane="0"/>
    <connection from="-1062593537#2" to="1062593537#2" fromLane="0" toLane="0"/>

    <connection from="-1062593537#3" to="-1062593534" fromLane="0" toLane="0"/>
    <connection from="-1062593537#3" to="-1062593537#2" fromLane="0" toLane="0"/>
    <connection from="-1062593537#3" to="1062593537#3" fromLane="0" toLane="0"/>

    <connection from="-1062593537#4" to="1062593535" fromLane="0" toLane="0"/>
    <connection from="-1062593537#4" to="-1062593537#3" fromLane="0" toLane="0"/>
    <connection from="-1062593537#4" to="1062593537#4" fromLane="0" toLane="0"/>

    <connection from="-1062593537#5" to="1062593536" fromLane="0" toLane="0"/>
    <connection from="-1062593537#5" to="-1062593537#4" fromLane="0" toLane="0"/>
    <connection from="-1062593537#5" to="1062593537#5" fromLane="0" toLane="0"/>

    <connection from="-1062593538#0" to="365078719#1" fromLane="0" toLane="0"/>
    <connection from="-1062593538#0" to="-365078719#0" fromLane="0" toLane="0"/>
    <connection from="-1062593538#0" to="1062593538#0" fromLane="0" toLane="0"/>

    <connection from="-1062593538#1" to="-1062593537#5" fromLane="0" toLane="0"/>
    <connection from="-1062593538#1" to="-1062593538#0" fromLane="0" toLane="0"/>
    <connection from="-1062593538#1" to="1062593538#1" fromLane="0" toLane="0"/>

    <connection from="-1062593538#2" to="-1062593536" fromLane="0" toLane="0"/>
    <connection from="-1062593538#2" to="-1062593538#1" fromLane="0" toLane="0"/>
    <connection from="-1062593538#2" to="1062593538#2" fromLane="0" toLane="0"/>

    <connection from="-1062593538#3" to="-1062593535" fromLane="0" toLane="0"/>
    <connection from="-1062593538#3" to="-1062593538#2" fromLane="0" toLane="0"/>
    <connection from="-1062593538#3" to="1062593538#3" fromLane="0" toLane="0"/>

    <connection from="-1062593538#4" to="1062593534" fromLane="0" toLane="0"/>
    <connection from="-1062593538#4" to="-1062593538#3" fromLane="0" toLane="0"/>
    <connection from="-1062593538#4" to="1062593538#4" fromLane="0" toLane="0"/>

    <connection from="-1062593538#5" to="-1062593533" fromLane="0" toLane="0"/>
    <connection from="-1062593538#5" to="-1062593538#4" fromLane="0" toLane="0"/>
    <connection from="-1062593538#5" to="1062593538#5" fromLane="0" toLane="0"/>

    <connection from="-1062593538#6" to="-1062593532" fromLane="0" toLane="0"/>
    <connection from="-1062593538#6" to="-1062593538#5" fromLane="0" toLane="0"/>
    <connection from="-1062593538#6" to="1062593538#6" fromLane="0" toLane="0"/>

    <connection from="-1062609809#0" to="1062609809#0" fromLane="0" toLane="0"/>

    <connection from="-1062609809#1" to="-1062609810" fromLane="0" toLane="0"/>
    <connection from="-1062609809#1" to="-1062609809#0" fromLane="0" toLane="0"/>
    <connection from="-1062609809#1" to="1062609809#1" fromLane="0" toLane="0"/>

    <connection from="-1062609810" to="478273190#2" fromLane="0" toLane="0"/>
    <connection from="-1062609810" to="-478273190#1" fromLane="0" toLane="1"/>
    <connection from="-1062609810" to="1062609810" fromLane="0" toLane="0"/>

    <connection from="-1062609811" to="177794965#1" fromLane="0" toLane="0"/>
    <connection from="-1062609811" to="-177794965#0" fromLane="0" toLane="0"/>
    <connection from="-1062609811" to="1062609811" fromLane="0" toLane="0"/>

    <connection from="-1062609812#0" to="-177794965#3" fromLane="0" toLane="0"/>
    <connection from="-1062609812#0" to="177794965#4" fromLane="0" toLane="0"/>
    <connection from="-1062609812#0" to="1062609812#0" fromLane="0" toLane="0"/>

    <connection from="-1062609812#1" to="-1062609812#0" fromLane="0" toLane="0"/>
    <connection from="-1062609812#1" to="1062609812#1" fromLane="0" toLane="0"/>

    <connection from="-1062609813" to="177794943" fromLane="0" toLane="0"/>
    <connection from="-1062609813" to="-177794957#1" fromLane="0" toLane="0"/>
    <connection from="-1062609813" to="177794957#2" fromLane="0" toLane="0"/>
    <connection from="-1062609813" to="1062609813" fromLane="0" toLane="0"/>

    <connection from="-1062609814" to="319897778#2" fromLane="0" toLane="0"/>
    <connection from="-1062609814" to="-319897778#1" fromLane="0" toLane="0"/>
    <connection from="-1062609814" to="1062609814" fromLane="0" toLane="0"/>

    <connection from="-1062609815" to="-319898352#2" fromLane="0" toLane="0"/>
    <connection from="-1062609815" to="319898352#3" fromLane="0" toLane="0"/>
    <connection from="-1062609815" to="1062609815" fromLane="0" toLane="0"/>

    <connection from="-1062609816#0" to="319897778#1" fromLane="0" toLane="0"/>
    <connection from="-1062609816#0" to="-319897778#0" fromLane="0" toLane="0"/>
    <connection from="-1062609816#0" to="1062609816#0" fromLane="0" toLane="0"/>

    <connection from="-1062609816#1" to="-1062609816#0" fromLane="0" toLane="0"/>
    <connection from="-1062609816#1" to="1062609817" fromLane="0" toLane="0"/>
    <connection from="-1062609816#1" to="1062609816#1" fromLane="0" toLane="0"/>

    <connection from="-1062609817" to="1062609816#1" fromLane="0" toLane="0"/>
    <connection from="-1062609817" to="-1062609816#0" fromLane="0" toLane="0"/>
    <connection from="-1062609817" to="1062609817" fromLane="0" toLane="0"/>

    <connection from="-1062609818" to="-319900061#0" fromLane="0" toLane="0"/>
    <connection from="-1062609818" to="319900061#1" fromLane="0" toLane="0"/>
    <connection from="-1062609818" to="1062609818" fromLane="0" toLane="0"/>

    <connection from="-1062609819" to="-177794951#3" fromLane="0" toLane="0"/>
    <connection from="-1062609819" to="177794951#4" fromLane="0" toLane="0"/>
    <connection from="-1062609819" to="1062609819" fromLane="0" toLane="0"/>

    <connection from="-1062609820" to="1062609820" fromLane="0" toLane="0"/>

    <connection from="-1062609821" to="177803854#3" fromLane="0" toLane="0"/>
    <connection from="-1062609821" to="-177803854#2" fromLane="0" toLane="0"/>
    <connection from="-1062609821" to="1062609821" fromLane="0" toLane="0"/>

    <connection from="-1062609823" to="-319352970#0" fromLane="0" toLane="0"/>
    <connection from="-1062609823" to="319352970#1" fromLane="0" toLane="0"/>
    <connection from="-1062609823" to="1062609823" fromLane="0" toLane="0"/>

    <connection from="-1062609826" to="-1062609827#0" fromLane="0" toLane="0"/>
    <connection from="-1062609826" to="1062609827#1" fromLane="0" toLane="0"/>
    <connection from="-1062609826" to="1062609826" fromLane="0" toLane="0"/>

    <connection from="-1062609827#0" to="1062609828#1" fromLane="0" toLane="0"/>
    <connection from="-1062609827#0" to="-1062609828#0" fromLane="0" toLane="0"/>
    <connection from="-1062609827#0" to="1062609827#0" fromLane="0" toLane="0"/>

    <connection from="-1062609827#1" to="1062609826" fromLane="0" toLane="0"/>
    <connection from="-1062609827#1" to="-1062609827#0" fromLane="0" toLane="0"/>
    <connection from="-1062609827#1" to="1062609827#1" fromLane="0" toLane="0"/>

    <connection from="-1062609828#0" to="-177803862#0" fromLane="0" toLane="0"/>
    <connection from="-1062609828#0" to="177803862#1" fromLane="0" toLane="0"/>
    <connection from="-1062609828#0" to="1062609828#0" fromLane="0" toLane="0"/>

    <connection from="-1062609828#1" to="-1062609828#0" fromLane="0" toLane="0"/>
    <connection from="-1062609828#1" to="1062609827#0" fromLane="0" toLane="0"/>
    <connection from="-1062609828#1" to="1062609828#1" fromLane="0" toLane="0"/>

    <connection from="-1062609829" to="177790381#3" fromLane="0" toLane="0"/>
    <connection from="-1062609829" to="-177790381#2" fromLane="0" toLane="0"/>
    <connection from="-1062609829" to="1062609829" fromLane="0" toLane="0"/>

    <connection from="-1062609830#0" to="177790381#5" fromLane="0" toLane="0"/>
    <connection from="-1062609830#0" to="-177790381#4" fromLane="0" toLane="0"/>
    <connection from="-1062609830#0" to="1062609830#0" fromLane="0" toLane="0"/>

    <connection from="-1062609830#1" to="-1062609830#0" fromLane="0" toLane="0"/>

    <connection from="-1062609830#2" to="1123423102" fromLane="0" toLane="0"/>
    <connection from="-1062609830#2" to="-1062609830#1" fromLane="0" toLane="0"/>

    <connection from="-1062609830#3" to="-1062609830#2" fromLane="0" toLane="0"/>

    <connection from="-1062609831" to="177790381#6" fromLane="0" toLane="0"/>
    <connection from="-1062609831" to="-177790381#5" fromLane="0" toLane="0"/>
    <connection from="-1062609831" to="1062609831" fromLane="0" toLane="0"/>

    <connection from="-1062609832" to="-51875973#0" fromLane="0" toLane="0"/>
    <connection from="-1062609832" to="51875973#1" fromLane="0" toLane="0"/>
    <connection from="-1062609832" to="1062609832" fromLane="0" toLane="0"/>

    <connection from="-1062609833" to="1062609833" fromLane="0" toLane="0"/>

    <connection from="-1062609834" to="-23228232#1" fromLane="0" toLane="0"/>
    <connection from="-1062609834" to="23228232#2" fromLane="0" toLane="0"/>
    <connection from="-1062609834" to="1062609834" fromLane="0" toLane="0"/>

    <connection from="-1078856743" to="1078856743" fromLane="0" toLane="0"/>

    <connection from="-1078856744#0" to="-752728929#0" fromLane="0" toLane="0"/>
    <connection from="-1078856744#0" to="752728929#1" fromLane="0" toLane="0"/>
    <connection from="-1078856744#0" to="1078856744#0" fromLane="0" toLane="0"/>

    <connection from="-1078856744#1" to="-1078856743" fromLane="0" toLane="0"/>
    <connection from="-1078856744#1" to="-1078856744#0" fromLane="0" toLane="0"/>
    <connection from="-1078856744#1" to="1078856744#1" fromLane="0" toLane="0"/>

    <connection from="-1078856745" to="-168323340#3" fromLane="0" toLane="0"/>
    <connection from="-1078856745" to="1078856745" fromLane="0" toLane="0"/>

    <connection from="-1078856750" to="-459387909" fromLane="0" toLane="0"/>

    <connection from="-1078856782#0" to="1078856782#0" fromLane="0" toLane="0"/>

    <connection from="-1078856782#1" to="-737031029#1" fromLane="0" toLane="0"/>
    <connection from="-1078856782#1" to="-1078856782#0" fromLane="0" toLane="0"/>
    <connection from="-1078856782#1" to="1078856782#1" fromLane="0" toLane="0"/>

    <connection from="-1087926588" to="-183843093#0" fromLane="0" toLane="0"/>
    <connection from="-1087926588" to="183843093#1" fromLane="0" toLane="0"/>
    <connection from="-1087926588" to="1087926588" fromLane="0" toLane="0"/>

    <connection from="-1087926589" to="1087926590" fromLane="0" toLane="0"/>
    <connection from="-1087926589" to="-475326004#0" fromLane="0" toLane="0"/>
    <connection from="-1087926589" to="475326004#1" fromLane="0" toLane="0"/>

    <connection from="-1087926590" to="-475326004#0" fromLane="0" toLane="0"/>
    <connection from="-1087926590" to="475326004#1" fromLane="0" toLane="0"/>
    <connection from="-1087926590" to="1087926590" fromLane="0" toLane="0"/>

    <connection from="-1087926593#0" to="-475326006#1" fromLane="0" toLane="0"/>
    <connection from="-1087926593#0" to="475326006#2" fromLane="0" toLane="0"/>
    <connection from="-1087926593#0" to="1087926593#0" fromLane="0" toLane="0"/>

    <connection from="-1087926593#1" to="-1087926593#0" fromLane="0" toLane="0"/>
    <connection from="-1087926593#1" to="-183843093#1" fromLane="0" toLane="0"/>
    <connection from="-1087926593#1" to="1087926593#1" fromLane="0" toLane="0"/>

    <connection from="-1087926594" to="-1087926593#1" fromLane="0" toLane="0"/>
    <connection from="-1087926594" to="51857434#1" fromLane="0" toLane="0"/>
    <connection from="-1087926594" to="1087926593#2" fromLane="0" toLane="0"/>

    <connection from="-1087926607" to="-183842065#0" fromLane="0" toLane="0"/>
    <connection from="-1087926607" to="183842065#1" fromLane="0" toLane="0"/>
    <connection from="-1087926607" to="1087926607" fromLane="0" toLane="0"/>

    <connection from="-1089477908#0" to="1089477908#0" fromLane="0" toLane="0"/>

    <connection from="-1089477908#1" to="-872186770" fromLane="0" toLane="0"/>
    <connection from="-1089477908#1" to="-1089477908#0" fromLane="0" toLane="0"/>

    <connection from="-1089477908#2" to="-1089477908#1" fromLane="0" toLane="0"/>
    <connection from="-1089477908#2" to="387094950#0" fromLane="0" toLane="0"/>

    <connection from="-1104523974" to="1078856744#0" fromLane="0" toLane="0"/>
    <connection from="-1104523974" to="-752728929#0" fromLane="0" toLane="0"/>

    <connection from="-1104523995#0" to="478273185#1" fromLane="0" toLane="0"/>
    <connection from="-1104523995#0" to="-478273185#0" fromLane="0" toLane="1"/>
    <connection from="-1104523995#0" to="1104523995#0" fromLane="0" toLane="0"/>

    <connection from="-1104523995#1" to="1116312810" fromLane="0" toLane="0"/>
    <connection from="-1104523995#1" to="-1104523995#0" fromLane="0" toLane="0"/>
    <connection from="-1104523995#1" to="1104523995#1" fromLane="0" toLane="0"/>

    <connection from="-1104523995#2" to="1116312811" fromLane="0" toLane="0"/>
    <connection from="-1104523995#2" to="-1104523995#1" fromLane="0" toLane="0"/>
    <connection from="-1104523995#2" to="1104523995#2" fromLane="0" toLane="0"/>

    <connection from="-1104523995#3" to="-1116312811" fromLane="0" toLane="0"/>
    <connection from="-1104523995#3" to="-1104523995#2" fromLane="0" toLane="0"/>
    <connection from="-1104523995#3" to="1104523995#3" fromLane="0" toLane="0"/>

    <connection from="-1104523995#4" to="-1116312810" fromLane="0" toLane="0"/>
    <connection from="-1104523995#4" to="-1104523995#3" fromLane="0" toLane="0"/>
    <connection from="-1104523995#4" to="1104523995#4" fromLane="0" toLane="0"/>

    <connection from="-1104523996" to="-217770100" fromLane="0" toLane="0"/>
    <connection from="-1104523996" to="-231791949#0" fromLane="0" toLane="0"/>
    <connection from="-1104523996" to="231791949#1" fromLane="0" toLane="0"/>

    <connection from="-1104526781#0" to="1062609834" fromLane="0" toLane="0"/>
    <connection from="-1104526781#0" to="-23228232#1" fromLane="0" toLane="0"/>
    <connection from="-1104526781#0" to="23228232#2" fromLane="0" toLane="0"/>

    <connection from="-1104526781#1" to="-1104526781#0" fromLane="0" toLane="0"/>
    <connection from="-1104526781#1" to="140901752#0" fromLane="0" toLane="0"/>
    <connection from="-1104526781#1" to="1104526781#1" fromLane="0" toLane="0"/>

    <connection from="-1104526785#0" to="24919718" fromLane="0" toLane="0"/>
    <connection from="-1104526785#0" to="-453507494#2" fromLane="0" toLane="0"/>
    <connection from="-1104526785#0" to="1104526785#0" fromLane="0" toLane="0"/>

    <connection from="-1109225152#0" to="-288322169#0" fromLane="0" toLane="0"/>
    <connection from="-1109225152#0" to="288322169#1" fromLane="0" toLane="0"/>
    <connection from="-1109225152#0" to="1109225152#0" fromLane="0" toLane="0"/>

    <connection from="-1109225152#1" to="288279401#2" fromLane="0" toLane="0"/>
    <connection from="-1109225152#1" to="-1109225152#0" fromLane="0" toLane="0"/>
    <connection from="-1109225152#1" to="-288279401#1" fromLane="0" toLane="0"/>
    <connection from="-1109225152#1" to="1109225152#1" fromLane="0" toLane="0"/>

    <connection from="-1109225152#2" to="288181411" fromLane="0" toLane="0"/>
    <connection from="-1109225152#2" to="-458640434#1" fromLane="0" toLane="0"/>
    <connection from="-1109225152#2" to="-1109225152#1" fromLane="0" toLane="0"/>
    <connection from="-1109225152#2" to="226720509" fromLane="0" toLane="0"/>
    <connection from="-1109225152#2" to="1109225152#2" fromLane="0" toLane="0"/>

    <connection from="-1109229201" to="-224380225#1" fromLane="0" toLane="0"/>
    <connection from="-1109229201" to="-288305747#1" fromLane="0" toLane="0"/>
    <connection from="-1109229201" to="224380225#2" fromLane="0" toLane="0"/>
    <connection from="-1109229201" to="1109229201" fromLane="0" toLane="0"/>

    <connection from="-1109229729" to="458640440#6" fromLane="0" toLane="0"/>
    <connection from="-1109229729" to="-458640440#5" fromLane="0" toLane="0"/>
    <connection from="-1109229729" to="1109229729" fromLane="0" toLane="0"/>

    <connection from="-1114851537" to="-352314133#3" fromLane="0" toLane="0"/>
    <connection from="-1114851537" to="352314133#4" fromLane="0" toLane="0"/>
    <connection from="-1114851537" to="1114851537" fromLane="0" toLane="0"/>

    <connection from="-1114851538" to="-1114851544" fromLane="0" toLane="0"/>
    <connection from="-1114851538" to="-140901872" fromLane="0" toLane="0"/>
    <connection from="-1114851538" to="1114851538" fromLane="0" toLane="0"/>

    <connection from="-1114851539" to="-352215029" fromLane="0" toLane="0"/>
    <connection from="-1114851539" to="287673428" fromLane="0" toLane="0"/>
    <connection from="-1114851539" to="1114851539" fromLane="0" toLane="0"/>

    <connection from="-1114851540" to="-352314133#2" fromLane="0" toLane="0"/>
    <connection from="-1114851540" to="352314133#3" fromLane="0" toLane="0"/>
    <connection from="-1114851540" to="1114851540" fromLane="0" toLane="0"/>

    <connection from="-1114851541" to="-351924974" fromLane="0" toLane="0"/>
    <connection from="-1114851541" to="-142613418" fromLane="0" toLane="0"/>
    <connection from="-1114851541" to="1114851541" fromLane="0" toLane="0"/>

    <connection from="-1114851542#0" to="351924974" fromLane="0" toLane="0"/>
    <connection from="-1114851542#0" to="-140901792" fromLane="0" toLane="0"/>
    <connection from="-1114851542#0" to="-140901848#1" fromLane="0" toLane="0"/>
    <connection from="-1114851542#0" to="1114851542#0" fromLane="0" toLane="0"/>

    <connection from="-1114851544" to="-352215037" fromLane="0" toLane="0"/>
    <connection from="-1114851544" to="-351924973" fromLane="0" toLane="0"/>
    <connection from="-1114851544" to="1114851544" fromLane="0" toLane="0"/>

    <connection from="-1114949902#0" to="-140901875" fromLane="0" toLane="0"/>
    <connection from="-1114949902#0" to="-1114851539" fromLane="0" toLane="0"/>
    <connection from="-1114949902#0" to="1114949902#0" fromLane="0" toLane="0"/>

    <connection from="-1114949902#1" to="-1114949902#0" fromLane="0" toLane="0"/>
    <connection from="-1114949902#1" to="-352212356" fromLane="0" toLane="0"/>
    <connection from="-1114949902#1" to="1114949902#1" fromLane="0" toLane="0"/>

    <connection from="-1116312810" to="-1104523995#0" fromLane="0" toLane="0"/>
    <connection from="-1116312810" to="1104523995#1" fromLane="0" toLane="0"/>
    <connection from="-1116312810" to="1116312810" fromLane="0" toLane="0"/>

    <connection from="-1116312811" to="-1104523995#1" fromLane="0" toLane="0"/>
    <connection from="-1116312811" to="1104523995#2" fromLane="0" toLane="0"/>
    <connection from="-1116312811" to="1116312811" fromLane="0" toLane="0"/>

    <connection from="-1120533319" to="-50950446#0" fromLane="0" toLane="0"/>
    <connection from="-1120533319" to="50950446#1" fromLane="0" toLane="0"/>
    <connection from="-1120533319" to="206262329#0" fromLane="0" toLane="0"/>
    <connection from="-1120533319" to="1120533319" fromLane="0" toLane="0"/>

    <connection from="-1125756488" to="1125756488" fromLane="0" toLane="0"/>

    <connection from="-1125756489" to="-292462417" fromLane="0" toLane="0"/>

    <connection from="-1125801450" to="387116670" fromLane="0" toLane="0" keepClear="0"/>

    <connection from="-1125801451" to="-288286639#0" fromLane="0" toLane="0"/>
    <connection from="-1125801451" to="288286639#1" fromLane="0" toLane="0"/>
    <connection from="-1125801451" to="1125801451" fromLane="0" toLane="0"/>

    <connection from="-1125801453" to="-177794948#2" fromLane="0" toLane="0" keepClear="0"/>

    <connection from="-1125801455" to="319876130#1" fromLane="0" toLane="0"/>
    <connection from="-1125801455" to="-319876130#0" fromLane="0" toLane="0"/>
    <connection from="-1125801455" to="1125801455" fromLane="0" toLane="0"/>

    <connection from="-1126664445" to="168323342#1" fromLane="0" toLane="0"/>
    <connection from="-1126664445" to="-168323342#0" fromLane="0" toLane="0"/>
    <connection from="-1126664445" to="1126664445" fromLane="0" toLane="0"/>

    <connection from="-1126664446" to="281447819#1" fromLane="0" toLane="0"/>
    <connection from="-1126664446" to="-281447819#0" fromLane="0" toLane="0"/>
    <connection from="-1126664446" to="1126664446" fromLane="0" toLane="0"/>

    <connection from="-1126925294" to="-244487316#1" fromLane="0" toLane="0"/>
    <connection from="-1126925294" to="244487316#2" fromLane="0" toLane="0"/>
    <connection from="-1126925294" to="1126925294" fromLane="0" toLane="0"/>

    <connection from="-1126987415" to="-129506906#0" fromLane="0" toLane="0"/>
    <connection from="-1126987415" to="129506906#1" fromLane="0" toLane="0"/>
    <connection from="-1126987415" to="1126987415" fromLane="0" toLane="0"/>

    <connection from="-1126987416#0" to="-206262331" fromLane="0" toLane="0"/>
    <connection from="-1126987416#0" to="206262333" fromLane="0" toLane="0"/>
    <connection from="-1126987416#0" to="1126987416#0" fromLane="0" toLane="0"/>

    <connection from="-1126987416#1" to="-1126987416#0" fromLane="0" toLane="0"/>
    <connection from="-1126987416#1" to="319503437" fromLane="0" toLane="0"/>
    <connection from="-1126987416#1" to="1126987416#1" fromLane="0" toLane="0"/>

    <connection from="-1126987417" to="-206262327#0" fromLane="0" toLane="0"/>
    <connection from="-1126987417" to="-206262335" fromLane="0" toLane="0"/>
    <connection from="-1126987417" to="206262327#1" fromLane="0" toLane="0"/>
    <connection from="-1126987417" to="1126987417" fromLane="0" toLane="0"/>

    <connection from="-1127467072" to="341237296#1" fromLane="0" toLane="0"/>
    <connection from="-1127467072" to="-341237296#0" fromLane="0" toLane="0"/>
    <connection from="-1127467072" to="1127467072" fromLane="0" toLane="0"/>

    <connection from="-1127555508" to="129506897#2" fromLane="0" toLane="0"/>
    <connection from="-1127555508" to="-129506897#1" fromLane="0" toLane="0"/>
    <connection from="-1127555508" to="1127555508" fromLane="0" toLane="0"/>

    <connection from="-1130961584" to="51875973#0" fromLane="0" toLane="0"/>
    <connection from="-1130961584" to="-51875972" fromLane="0" toLane="0"/>
    <connection from="-1130961584" to="-387116668" fromLane="0" toLane="0"/>
    <connection from="-1130961584" to="1130961584" fromLane="0" toLane="0"/>

    <connection from="-1130961585" to="478262568" fromLane="0" toLane="0"/>
    <connection from="-1130961585" to="1130961585" fromLane="0" toLane="0"/>

    <connection from="-1130961587#0" to="622806202#0" fromLane="0" toLane="0"/>
    <connection from="-1130961587#0" to="-1130961585" fromLane="0" toLane="0"/>
    <connection from="-1130961587#0" to="1130961587#0" fromLane="0" toLane="0"/>

    <connection from="-1130961587#1" to="-1130961587#0" fromLane="0" toLane="0"/>
    <connection from="-1130961587#1" to="288304055#0" fromLane="0" toLane="0"/>

    <connection from="-1130961588" to="24941112" fromLane="0" toLane="0"/>
    <connection from="-1130961588" to="82893183" fromLane="0" toLane="0"/>

    <connection from="-1149343438" to="50943897#2" fromLane="0" toLane="0"/>
    <connection from="-1149343438" to="-50943897#1" fromLane="0" toLane="0"/>
    <connection from="-1149343438" to="1149343438" fromLane="0" toLane="0"/>

    <connection from="-1151179732" to="-204154277#0" fromLane="0" toLane="0"/>
    <connection from="-1151179732" to="204154277#1" fromLane="0" toLane="0"/>