<?xml version="1.0" encoding="UTF-8"?>

<!-- generated on 2025-04-08 22:43:37 by Eclipse SUMO netconvert Version 1.19.0
<configuration xmlns:xsi="http://www.w3.org/2001/XMLSchema-instance" xsi:noNamespaceSchemaLocation="http://sumo.dlr.de/xsd/netconvertConfiguration.xsd">

    <input>
        <sumo-net-file value="nemours/nemours.net.xml"/>
    </input>

    <output>
        <plain-output-prefix value="nemours/nemours"/>
    </output>

    <processing>
        <geometry.min-radius.fix.railways value="false"/>
        <geometry.max-grade.fix value="false"/>
        <offset.disable-normalization value="true"/>
        <lefthand value="0"/>
    </processing>

    <tls_building>
        <tls.ignore-internal-junction-jam value="1"/>
    </tls_building>

    <junctions>
        <no-turnarounds value="true"/>
        <junctions.corner-detail value="5"/>
        <junctions.limit-turn-speed value="5.50"/>
        <rectangular-lane-cut value="0"/>
    </junctions>

    <pedestrian>
        <walkingareas value="0"/>
    </pedestrian>

</configuration>
-->

<nodes version="1.16" xmlns:xsi="http://www.w3.org/2001/XMLSchema-instance" xsi:noNamespaceSchemaLocation="http://sumo.dlr.de/xsd/nodes_file.xsd">
    <location netOffset="-470192.62,-5340701.09" convBoundary="0.00,0.00,12786.96,9104.74" origBoundary="2.598471,48.184141,2.770727,48.300901" projParameter="+proj=utm +zone=31 +ellps=WGS84 +datum=WGS84 +units=m +no_defs"/>

    <node id="10107273923" x="6099.92" y="4278.45" type="priority"/>
    <node id="10107273928" x="6815.70" y="4763.98" type="right_before_left"/>
    <node id="10107273929" x="6811.21" y="4763.13" type="priority"/>
    <node id="10107281054" x="7252.74" y="5232.89" type="priority"/>
    <node id="10107281141" x="6284.26" y="6848.73" type="right_before_left"/>
    <node id="10107281144" x="6310.75" y="6841.19" type="priority"/>
    <node id="10149145067" x="8917.57" y="3782.18" type="right_before_left"/>
    <node id="10149145069" x="8906.29" y="3700.31" type="right_before_left"/>
    <node id="10149166008" x="9218.59" y="3463.20" type="priority"/>
    <node id="10210020221" x="6290.97" y="6803.01" type="right_before_left"/>
    <node id="10210020222" x="6268.24" y="6847.30" type="right_before_left"/>
    <node id="10210020223" x="6275.41" y="6800.45" type="right_before_left"/>
    <node id="10248612465" x="6926.35" y="3424.64" type="priority" fringe="inner">
        <param key="buffer_stop" value="true"/>
    </node>
    <node id="10274075479" x="8027.32" y="5634.68" type="priority"/>
    <node id="10274075480" x="8030.04" y="5579.73" type="priority"/>
    <node id="10274075490" x="8027.91" y="5622.76" type="priority"/>
    <node id="10274075493" x="8021.77" y="5648.62" type="priority"/>
    <node id="10294413486" x="8136.85" y="6161.31" type="priority" fringe="inner">
        <param key="buffer_stop" value="true"/>
    </node>
    <node id="10294829808" x="7321.21" y="6524.11" type="priority"/>
    <node id="10294829809" x="7349.84" y="6490.76" type="priority" fringe="inner">
        <param key="buffer_stop" value="true"/>
    </node>
    <node id="10298031334" x="7606.16" y="4263.49" type="priority"/>
    <node id="10300959643" x="7073.30" y="5065.15" type="priority"/>
    <node id="10302242409" x="6280.91" y="5537.45" type="priority" fringe="inner">
        <param key="buffer_stop" value="true"/>
    </node>
    <node id="10302242705" x="6192.92" y="5117.15" type="priority"/>
    <node id="10302894777" x="5518.48" y="6113.22" type="priority"/>
    <node id="10304554047" x="6457.26" y="6262.60" type="priority"/>
    <node id="10305093764" x="4083.91" y="4793.40" type="priority"/>
    <node id="10308470108" x="6617.71" y="6154.70" type="priority" fringe="inner">
        <param key="buffer_stop" value="true"/>
    </node>
    <node id="10309142199" x="3504.09" y="3924.45" type="priority"/>
    <node id="10617136641" x="6379.13" y="5662.18" type="priority"/>
    <node id="10692427217" x="7504.02" y="2395.38" type="priority"/>
    <node id="10692427220" x="7537.92" y="2379.36" type="priority"/>
    <node id="10708977017" x="7407.41" y="3771.80" type="priority"/>
    <node id="10708977023" x="7316.62" y="3725.74" type="right_before_left"/>
    <node id="10792989400" x="8634.29" y="5504.48" type="right_before_left"/>
    <node id="10792989404" x="8443.85" y="5421.76" type="priority"/>
    <node id="10792993005" x="8445.74" y="5416.75" type="priority"/>
    <node id="10792993006" x="8447.12" y="5413.13" type="right_before_left"/>
    <node id="10792993007" x="8442.80" y="5424.53" type="right_before_left"/>
    <node id="10792993008" x="8133.87" y="5315.98" type="priority"/>
    <node id="10792993009" x="7993.41" y="5314.33" type="priority"/>
    <node id="10792993010" x="7992.85" y="5309.05" type="priority"/>
    <node id="10792993011" x="7992.65" y="5307.19" type="right_before_left"/>
    <node id="10792993012" x="7993.72" y="5317.27" type="right_before_left"/>
    <node id="10792993013" x="7915.84" y="5331.08" type="right_before_left"/>
    <node id="10792993014" x="8099.77" y="5304.37" type="priority"/>
    <node id="10792993015" x="8099.23" y="5309.63" type="priority"/>
    <node id="10792993016" x="8098.89" y="5312.52" type="right_before_left"/>
    <node id="10792993017" x="8166.44" y="5316.76" type="right_before_left"/>
    <node id="10792993018" x="8165.63" y="5319.41" type="priority"/>
    <node id="10792993019" x="8164.06" y="5324.48" type="priority"/>
    <node id="10792993020" x="8240.34" y="5349.95" type="priority"/>
    <node id="10792993021" x="8242.18" y="5344.72" type="priority"/>
    <node id="10792993022" x="8239.36" y="5352.74" type="right_before_left"/>
    <node id="10792993023" x="8264.49" y="5351.76" type="priority"/>
    <node id="10792993024" x="8262.71" y="5357.34" type="priority"/>
    <node id="10792993025" x="8261.77" y="5360.25" type="right_before_left"/>
    <node id="10792993026" x="8328.23" y="5375.27" type="priority"/>
    <node id="10792993031" x="8265.43" y="5348.81" type="right_before_left"/>
    <node id="10792993034" x="8254.75" y="5339.13" type="right_before_left"/>
    <node id="10792993038" x="8243.41" y="5341.25" type="right_before_left"/>
    <node id="10792993041" x="8179.55" y="5321.26" type="right_before_left"/>
    <node id="10792993044" x="8148.23" y="5314.17" type="priority"/>
    <node id="10792993045" x="8104.87" y="5310.50" type="priority"/>
    <node id="10792993046" x="8174.06" y="5326.95" type="priority"/>
    <node id="10792993047" x="7914.64" y="5327.69" type="priority"/>
    <node id="10792993048" x="8066.23" y="5301.26" type="right_before_left"/>
    <node id="10792993049" x="8088.45" y="5304.22" type="priority"/>
    <node id="10792993057" x="7911.58" y="5320.16" type="priority"/>
    <node id="10792993059" x="7900.91" y="5324.03" type="priority"/>
    <node id="10792993066" x="7858.41" y="5340.63" type="priority"/>
    <node id="10792993070" x="7821.29" y="5363.78" type="priority"/>
    <node id="10792993110" x="7908.52" y="5315.84" type="priority"/>
    <node id="10792993149" x="8250.58" y="5353.33" type="priority"/>
    <node id="10792993153" x="8291.11" y="5363.72" type="priority"/>
    <node id="10792993162" x="8335.19" y="5382.47" type="priority"/>
    <node id="10792993163" x="7957.33" y="5315.11" type="priority"/>
    <node id="10792993164" x="8010.45" y="5308.70" type="priority"/>
    <node id="10792993167" x="8074.78" y="5305.33" type="priority"/>
    <node id="10792993168" x="8218.05" y="5339.24" type="priority"/>
    <node id="10792993170" x="8537.29" y="5443.99" type="right_before_left"/>
    <node id="10792993193" x="8373.96" y="5389.71" type="priority"/>
    <node id="10792993194" x="8376.09" y="5396.04" type="priority"/>
    <node id="10792993224" x="9085.81" y="5608.37" type="priority"/>
    <node id="10792993234" x="9086.95" y="5605.50" type="priority"/>
    <node id="10792993244" x="9116.31" y="5610.34" type="priority"/>
    <node id="10792993271" x="8588.25" y="5491.81" type="priority"/>
    <node id="10792993290" x="8631.69" y="5497.38" type="priority"/>
    <node id="10792993300" x="8612.56" y="5492.16" type="priority"/>
    <node id="10792993301" x="8570.33" y="5443.01" type="priority"/>
    <node id="10792993302" x="8557.06" y="5438.08" type="priority"/>
    <node id="10792993303" x="8533.31" y="5447.92" type="priority"/>
    <node id="10792993304" x="8527.08" y="5465.27" type="priority"/>
    <node id="10792993305" x="8542.59" y="5489.82" type="priority"/>
    <node id="10792993306" x="8556.63" y="5492.45" type="priority"/>
    <node id="10792993307" x="8581.76" y="5466.90" type="priority"/>
    <node id="10792993308" x="8574.75" y="5483.52" type="priority"/>
    <node id="10792993309" x="8566.08" y="5483.33" type="priority"/>
    <node id="10792993335" x="8551.84" y="5443.27" type="priority"/>
    <node id="10792993340" x="8571.20" y="5450.73" type="priority"/>
    <node id="10792993356" x="8527.67" y="5470.96" type="priority"/>
    <node id="10792993375" x="8567.02" y="5489.50" type="right_before_left"/>
    <node id="10792993388" x="8581.48" y="5460.81" type="priority"/>
    <node id="10792993414" x="8541.27" y="5482.08" type="priority"/>
    <node id="10792993421" x="8561.26" y="5485.58" type="priority"/>
    <node id="10792993447" x="8541.42" y="5447.49" type="priority"/>
    <node id="10792993455" x="8533.97" y="5471.98" type="priority"/>
    <node id="10853332175" x="6437.33" y="5304.11" type="dead_end"/>
    <node id="10862315636" x="7364.76" y="5353.58" type="dead_end"/>
    <node id="10862315803" x="7873.66" y="5247.47" type="priority"/>
    <node id="10862315804" x="7846.56" y="5299.75" type="priority"/>
    <node id="10862334598" x="8116.15" y="5146.86" type="priority"/>
    <node id="10862334604" x="8224.27" y="5041.81" type="priority"/>
    <node id="10866953874" x="7374.97" y="7087.29" type="priority"/>
    <node id="10951603601" x="7720.29" y="6516.42" type="priority"/>
    <node id="10951603602" x="7687.14" y="6593.27" type="priority"/>
    <node id="10951603603" x="7504.33" y="6721.69" type="priority"/>
    <node id="10951605012" x="6103.98" y="5835.01" type="right_before_left"/>
    <node id="10951605013" x="6078.78" y="5839.07" type="priority"/>
    <node id="10951605016" x="6114.51" y="5851.39" type="priority"/>
    <node id="10951605029" x="6094.79" y="5779.21" type="priority"/>
    <node id="10951631006" x="7534.41" y="6746.49" type="priority"/>
    <node id="10951631007" x="7551.42" y="6763.06" type="priority"/>
    <node id="10951631009" x="7556.34" y="6775.20" type="priority"/>
    <node id="10951631016" x="7529.97" y="6739.39" type="right_before_left"/>
    <node id="10951631025" x="7694.41" y="6576.97" type="priority"/>
    <node id="10951631031" x="7680.41" y="6783.43" type="right_before_left"/>
    <node id="10951631033" x="7641.54" y="6915.09" type="right_before_left"/>
    <node id="10951631034" x="7581.24" y="6893.66" type="right_before_left"/>
    <node id="10951631036" x="7558.30" y="6919.15" type="right_before_left"/>
    <node id="10951631037" x="7619.21" y="6938.84" type="right_before_left"/>
    <node id="10951631040" x="7614.81" y="6856.35" type="right_before_left"/>
    <node id="10951631041" x="7586.08" y="6830.16" type="right_before_left"/>
    <node id="10951631042" x="7626.62" y="6843.21" type="right_before_left"/>
    <node id="10951631043" x="7599.29" y="6817.73" type="priority"/>
    <node id="10951631044" x="7638.57" y="6829.94" type="right_before_left"/>
    <node id="10951631045" x="7631.40" y="6808.28" type="right_before_left"/>
    <node id="10951631046" x="7651.42" y="6815.65" type="right_before_left"/>
    <node id="10951631048" x="7663.72" y="6802.00" type="right_before_left"/>
    <node id="10951631049" x="7617.53" y="6823.39" type="right_before_left"/>
    <node id="10951631050" x="7549.32" y="6884.94" type="right_before_left"/>
    <node id="10951631053" x="7537.40" y="6942.39" type="right_before_left"/>
    <node id="10951631054" x="7484.08" y="6937.03" type="priority"/>
    <node id="10951631058" x="7452.79" y="6928.21" type="right_before_left"/>
    <node id="10951631062" x="7463.13" y="6901.62" type="right_before_left"/>
    <node id="10951631063" x="7502.99" y="6915.67" type="priority"/>
    <node id="10951631561" x="7255.73" y="6692.74" type="priority"/>
    <node id="10951631564" x="7230.57" y="6711.67" type="dead_end"/>
    <node id="10951631565" x="7225.38" y="6715.57" type="dead_end"/>
    <node id="10989446126" x="6539.77" y="5368.96" type="dead_end"/>
    <node id="10989446127" x="6554.49" y="5379.95" type="dead_end"/>
    <node id="11111276545" x="4885.24" y="7848.69" type="priority"/>
    <node id="11219752648" x="7089.05" y="4834.66" type="priority"/>
    <node id="11219752649" x="7167.41" y="4892.69" type="priority"/>
    <node id="11219752650" x="7163.47" y="4889.24" type="priority"/>
    <node id="11259041114" x="9100.95" y="4873.28" type="dead_end"/>
    <node id="11259041115" x="9077.32" y="4883.42" type="dead_end"/>
    <node id="11259041118" x="9081.10" y="4876.40" type="dead_end"/>
    <node id="11259108761" x="9073.48" y="4945.09" type="dead_end"/>
    <node id="11259108762" x="9066.01" y="4958.75" type="dead_end"/>
    <node id="11259108763" x="9109.48" y="4877.64" type="dead_end"/>
    <node id="11259108830" x="9184.00" y="4735.63" type="priority"/>
    <node id="11259108833" x="9147.63" y="4696.83" type="dead_end"/>
    <node id="11259113464" x="9060.97" y="4936.74" type="dead_end"/>
    <node id="11259119989" x="9070.90" y="4887.91" type="priority"/>
    <node id="11259119990" x="9102.86" y="4878.66" type="right_before_left"/>
    <node id="11259119991" x="9074.56" y="4881.09" type="priority"/>
    <node id="11259119992" x="9106.12" y="4872.59" type="right_before_left"/>
    <node id="11259119993" x="9100.46" y="4874.11" type="priority"/>
    <node id="11259119996" x="9101.86" y="4873.73" type="priority"/>
    <node id="11259360536" x="9274.34" y="4667.61" type="priority"/>
    <node id="11259360605" x="9199.41" y="4780.60" type="dead_end"/>
    <node id="11271754439" x="7957.60" y="5235.65" type="right_before_left"/>
    <node id="11407814262" x="8729.22" y="4623.07" type="priority"/>
    <node id="11407814267" x="8738.21" y="4739.93" type="priority"/>
    <node id="11407814268" x="8721.96" y="4705.86" type="right_before_left"/>
    <node id="11407821270" x="5290.08" y="5263.07" type="right_before_left"/>
    <node id="11482156893" x="6360.91" y="6530.39" type="priority"/>
    <node id="11482156894" x="6353.19" y="6529.70" type="priority"/>
    <node id="11518519021" x="7846.28" y="4042.54" type="priority"/>
    <node id="11518519025" x="7946.56" y="4078.03" type="priority"/>
    <node id="11518519027" x="7921.99" y="4089.60" type="priority"/>
    <node id="11638347965" x="8684.34" y="4616.24" type="right_before_left"/>
    <node id="11638347966" x="8678.89" y="4605.42" type="priority"/>
    <node id="11638347967" x="8634.82" y="4642.89" type="right_before_left"/>
    <node id="11638347968" x="8629.17" y="4632.06" type="priority"/>
    <node id="11640637832" x="9098.19" y="4586.91" type="right_before_left"/>
    <node id="11640637839" x="9048.98" y="4585.23" type="right_before_left"/>
    <node id="11640637840" x="9046.76" y="4594.93" type="right_before_left"/>
    <node id="11640637841" x="9057.83" y="4575.89" type="priority"/>
    <node id="11640637842" x="9014.31" y="4594.96" type="priority"/>
    <node id="11640637843" x="8999.30" y="4591.32" type="right_before_left"/>
    <node id="11640637845" x="8913.05" y="4626.08" type="priority"/>
    <node id="11640637846" x="8922.12" y="4629.65" type="right_before_left"/>
    <node id="11640637849" x="8947.43" y="4639.61" type="right_before_left"/>
    <node id="11640637867" x="8894.51" y="4610.25" type="priority"/>
    <node id="11640648873" x="8985.64" y="4672.95" type="priority"/>
    <node id="11640648876" x="9023.50" y="4616.08" type="priority" fringe="inner">
        <param key="buffer_stop" value="true"/>
    </node>
    <node id="11640648877" x="8960.34" y="4738.66" type="priority"/>
    <node id="11640648879" x="8987.06" y="4751.17" type="right_before_left"/>
    <node id="11640648881" x="8957.55" y="4746.25" type="priority"/>
    <node id="11640648882" x="9034.87" y="4768.29" type="priority" fringe="inner">
        <param key="buffer_stop" value="true"/>
    </node>
    <node id="11640648883" x="8964.92" y="4726.17" type="priority"/>
    <node id="11640648884" x="8983.50" y="4732.88" type="priority" fringe="inner">
        <param key="buffer_stop" value="true"/>
    </node>
    <node id="11640648885" x="8917.78" y="4851.07" type="priority"/>
    <node id="11640648886" x="8937.33" y="4857.00" type="right_before_left"/>
    <node id="11640648889" x="8971.23" y="4888.43" type="priority"/>
    <node id="11640648892" x="8918.26" y="5001.30" type="priority"/>
    <node id="11640648893" x="8898.73" y="5046.76" type="priority" fringe="inner">
        <param key="buffer_stop" value="true"/>
    </node>
    <node id="11640648894" x="8962.76" y="5069.38" type="priority"/>
    <node id="11640648895" x="8949.68" y="5061.85" type="right_before_left"/>
    <node id="11640648899" x="8952.82" y="5025.91" type="priority"/>
    <node id="11640648900" x="8940.32" y="5058.29" type="priority"/>
    <node id="11640648901" x="8852.82" y="5024.01" type="priority"/>
    <node id="11640648903" x="8874.59" y="5003.64" type="priority"/>
    <node id="11640648904" x="8847.70" y="5037.49" type="priority"/>
    <node id="11640648906" x="8732.38" y="4993.54" type="priority"/>
    <node id="11640648909" x="8846.01" y="4972.79" type="priority"/>
    <node id="11640648910" x="8869.15" y="4980.96" type="priority"/>
    <node id="11640648911" x="8740.30" y="4972.80" type="priority"/>
    <node id="11640648916" x="8855.48" y="5017.00" type="priority"/>
    <node id="11640648917" x="8758.91" y="4923.92" type="priority"/>
    <node id="11640648918" x="8769.16" y="4932.38" type="right_before_left"/>
    <node id="11640648920" x="8796.76" y="4944.37" type="priority"/>
    <node id="11640648921" x="8776.40" y="4915.27" type="priority"/>
    <node id="11640648922" x="8769.27" y="4897.15" type="priority"/>
    <node id="11640648923" x="8789.37" y="4894.93" type="right_before_left"/>
    <node id="11640648924" x="8807.04" y="4850.73" type="right_before_left"/>
    <node id="11640648925" x="8791.69" y="4835.54" type="priority"/>
    <node id="11640648926" x="8825.40" y="4908.14" type="priority"/>
    <node id="11640648928" x="8836.15" y="4842.52" type="priority"/>
    <node id="11640648929" x="8732.05" y="5183.37" type="priority"/>
    <node id="11640648931" x="8781.25" y="5117.52" type="priority"/>
    <node id="11640648932" x="8772.82" y="5130.04" type="right_before_left"/>
    <node id="11640648933" x="8755.60" y="5123.43" type="priority"/>
    <node id="11640648934" x="8777.60" y="5226.94" type="priority"/>
    <node id="11640648940" x="8788.06" y="5132.27" type="priority"/>
    <node id="11640648941" x="8812.66" y="5142.18" type="right_before_left"/>
    <node id="11640648948" x="8870.15" y="5150.83" type="priority"/>
    <node id="11640648949" x="8861.61" y="5169.41" type="right_before_left"/>
    <node id="11640648950" x="8868.02" y="5259.77" type="priority"/>
    <node id="11640648953" x="8839.20" y="5139.15" type="priority"/>
    <node id="11640648954" x="8863.71" y="5148.40" type="priority"/>
    <node id="11640648957" x="8924.60" y="5088.71" type="priority"/>
    <node id="11640648958" x="8986.31" y="5088.72" type="dead_end"/>
    <node id="11694714784" x="6973.38" y="1355.12" type="priority"/>
    <node id="11694714815" x="7524.62" y="2330.18" type="priority"/>
    <node id="11917588102" x="6910.17" y="5746.18" type="priority"/>
    <node id="11917588106" x="6936.10" y="5784.82" type="right_before_left"/>
    <node id="11917588109" x="6965.58" y="5815.89" type="priority"/>
    <node id="12036597469" x="5800.79" y="4060.11" type="priority"/>
    <node id="12036597470" x="5403.19" y="3761.24" type="right_before_left"/>
    <node id="12036597472" x="4987.58" y="3451.99" type="right_before_left"/>
    <node id="12036597475" x="4878.70" y="3375.43" type="priority"/>
    <node id="12036597477" x="4798.20" y="3328.26" type="priority"/>
    <node id="12067933415" x="7356.48" y="5043.15" type="right_before_left"/>
    <node id="12067933416" x="7386.23" y="5093.48" type="priority"/>
    <node id="12067933420" x="7379.50" y="5057.65" type="priority"/>
    <node id="12067933421" x="7371.19" y="5060.88" type="priority"/>
    <node id="12067933422" x="7380.00" y="5087.15" type="priority"/>
    <node id="12092465069" x="5651.93" y="4825.58" type="right_before_left"/>
    <node id="12092465070" x="5625.19" y="4826.22" type="priority"/>
    <node id="12092465071" x="5604.41" y="4318.08" type="priority"/>
    <node id="12100813858" x="8143.04" y="5582.54" type="priority"/>
    <node id="12176583794" x="7098.98" y="5236.24" type="priority"/>
    <node id="12176602733" x="7072.07" y="5245.59" type="priority"/>
    <node id="12176602735" x="7088.21" y="5234.53" type="right_before_left"/>
    <node id="12179744684" x="6137.72" y="4246.47" type="right_before_left"/>
    <node id="12179744687" x="6205.07" y="4126.15" type="right_before_left"/>
    <node id="12179763401" x="5796.76" y="7002.99" type="priority"/>
    <node id="12179763402" x="5812.47" y="7003.21" type="priority"/>
    <node id="12179763403" x="5813.24" y="6983.45" type="priority"/>
    <node id="12179763404" x="5770.50" y="6982.25" type="priority"/>
    <node id="12208614494" x="6684.59" y="7672.32" type="dead_end"/>
    <node id="12277178108" x="3884.06" y="5627.16" type="right_before_left"/>
    <node id="12277311877" x="6379.27" y="5648.52" type="priority"/>
    <node id="12288747059" x="2831.09" y="6066.47" type="priority"/>
    <node id="12329594209" x="9411.20" y="4415.89" type="right_before_left"/>
    <node id="12329594211" x="9069.10" y="4513.00" type="priority"/>
    <node id="12329594216" x="9175.43" y="4132.22" type="right_before_left"/>
    <node id="12329594220" x="9335.54" y="4126.68" type="right_before_left"/>
    <node id="12329594352" x="8492.11" y="4404.11" type="right_before_left"/>
    <node id="12329594358" x="8242.50" y="4617.58" type="right_before_left"/>
    <node id="12329594359" x="8293.71" y="4814.31" type="priority"/>
    <node id="12329594360" x="8239.66" y="4769.38" type="right_before_left"/>
    <node id="12329594361" x="8075.63" y="4656.32" type="right_before_left"/>
    <node id="12329594364" x="8042.40" y="4617.71" type="right_before_left"/>
    <node id="12357801411" x="9029.57" y="5295.43" type="right_before_left"/>
    <node id="12357801417" x="8953.79" y="5476.08" type="right_before_left"/>
    <node id="12357801422" x="9022.59" y="5307.56" type="priority"/>
    <node id="12357801423" x="9256.71" y="5248.94" type="right_before_left"/>
    <node id="12357801428" x="9105.14" y="5190.11" type="priority"/>
    <node id="12357801441" x="9134.58" y="5185.23" type="right_before_left"/>
    <node id="12357801446" x="9240.11" y="5358.70" type="priority"/>
    <node id="1307230190" x="3382.49" y="5505.01" type="right_before_left"/>
    <node id="1307230210" x="3286.33" y="7366.78" type="right_before_left"/>
    <node id="1307230217" x="3193.81" y="5674.87" type="priority"/>
    <node id="1307230243" x="2904.31" y="7247.45" type="priority"/>
    <node id="1307230256" x="3885.91" y="5505.95" type="right_before_left"/>
    <node id="1307230344" x="3192.96" y="5568.12" type="right_before_left"/>
    <node id="1307230349" x="3318.81" y="7215.13" type="right_before_left"/>
    <node id="1307230389" x="3464.74" y="5424.10" type="right_before_left"/>
    <node id="1307230405" x="2972.58" y="6740.55" type="right_before_left"/>
    <node id="1307230443" x="2998.06" y="5712.37" type="priority"/>
    <node id="1307230525" x="3241.59" y="5618.42" type="right_before_left"/>
    <node id="1309554175" x="3037.11" y="7774.65" type="priority"/>
    <node id="1309554262" x="3561.22" y="8306.61" type="priority"/>
    <node id="1316186370" x="6924.58" y="5163.09" type="priority"/>
    <node id="1316186383" x="7274.29" y="5324.21" type="right_before_left"/>
    <node id="1316186384" x="7118.98" y="5449.70" type="priority"/>
    <node id="1316186385" x="7159.49" y="5127.46" type="priority"/>
    <node id="1316186387" x="7000.42" y="5765.10" type="priority"/>
    <node id="1316186398" x="7289.85" y="5229.93" type="right_before_left"/>
    <node id="1316186399" x="7030.68" y="5683.98" type="priority"/>
    <node id="1316186400" x="7254.57" y="5224.02" type="priority"/>
    <node id="1316186402" x="6843.10" y="5143.66" type="priority"/>
    <node id="1316186403" x="7248.12" y="5405.03" type="priority"/>
    <node id="1316186404" x="7365.24" y="5242.66" type="priority"/>
    <node id="1316186405" x="7244.58" y="5476.61" type="priority"/>
    <node id="1316186412" x="7072.81" y="5570.03" type="priority"/>
    <node id="1316186414" x="7222.06" y="5103.04" type="priority"/>
    <node id="1316186415" x="7208.88" y="4956.17" type="priority"/>
    <node id="1316186421" x="7081.45" y="5336.67" type="priority"/>
    <node id="1316186425" x="7364.17" y="5365.66" type="priority"/>
    <node id="1316186428" x="7214.21" y="5348.48" type="priority"/>
    <node id="1316186433" x="6983.44" y="5326.38" type="priority"/>
    <node id="1316186435" x="7108.13" y="5339.30" type="priority"/>
    <node id="1316186442" x="6715.20" y="5354.56" type="right_before_left"/>
    <node id="1316186443" x="7134.42" y="5075.11" type="priority"/>
    <node id="1316186454" x="7145.04" y="5078.70" type="priority"/>
    <node id="1316186455" x="7012.27" y="5801.00" type="priority"/>
    <node id="1316186456" x="7134.56" y="5194.93" type="priority"/>
    <node id="1316186461" x="7265.80" y="5225.67" type="priority"/>
    <node id="1316186466" x="6819.46" y="5512.52" type="priority"/>
    <node id="1428759800" x="3303.68" y="4420.37" type="priority"/>
    <node id="1428759849" x="4067.59" y="4841.71" type="priority"/>
    <node id="1428759855" x="4266.88" y="4447.63" type="priority"/>
    <node id="1428759862" x="3595.92" y="5039.76" type="priority"/>
    <node id="1428759865" x="3282.91" y="3824.87" type="priority"/>
    <node id="1428759887" x="3754.91" y="4698.33" type="right_before_left"/>
    <node id="1428759889" x="3506.61" y="4236.52" type="right_before_left"/>
    <node id="1428759891" x="3799.75" y="4315.24" type="right_before_left"/>
    <node id="1428759909" x="3593.61" y="4921.29" type="priority"/>
    <node id="1428759910" x="3575.36" y="4890.91" type="priority"/>
    <node id="1428759932" x="3578.47" y="4918.37" type="right_before_left"/>
    <node id="1428759946" x="3254.42" y="4168.33" type="priority"/>
    <node id="1428759965" x="3725.27" y="4902.91" type="right_before_left"/>
    <node id="1428759971" x="3926.68" y="5032.41" type="priority"/>
    <node id="1428759985" x="3667.86" y="4928.28" type="priority"/>
    <node id="1428760006" x="3996.72" y="4997.37" type="priority"/>
    <node id="1428760014" x="3691.15" y="5037.07" type="priority"/>
    <node id="1428760016" x="4028.57" y="4972.18" type="priority"/>
    <node id="1428760023" x="3552.06" y="4853.40" type="priority"/>
    <node id="1428760048" x="4297.73" y="4085.70" type="priority"/>
    <node id="1428762090" x="6216.68" y="4391.76" type="priority"/>
    <node id="1428762109" x="6234.37" y="4379.89" type="priority"/>
    <node id="1428762111" x="3794.34" y="4023.34" type="priority"/>
    <node id="1428762114" x="3898.89" y="3656.34" type="right_before_left"/>
    <node id="1428762118" x="5837.30" y="4331.69" type="priority"/>
    <node id="1428762137" x="5802.36" y="4055.34" type="priority"/>
    <node id="1428964793" x="4593.15" y="4722.11" type="right_before_left"/>
    <node id="1428964794" x="4149.22" y="4648.73" type="priority"/>
    <node id="1428964795" x="4677.87" y="4518.10" type="right_before_left"/>
    <node id="1428964799" x="3244.86" y="3811.42" type="priority"/>
    <node id="1428964801" x="3264.84" y="3782.31" type="right_before_left"/>
    <node id="1428964804" x="5032.40" y="4812.44" type="priority"/>
    <node id="1428964806" x="3164.09" y="3448.14" type="priority"/>
    <node id="1428964807" x="5209.92" y="4617.95" type="priority"/>
    <node id="1428965929" x="1658.27" y="3133.66" type="priority"/>
    <node id="1473221447" x="6911.43" y="4744.90" type="priority"/>
    <node id="1473221451" x="6274.73" y="6290.37" type="priority"/>
    <node id="1473221452" x="6225.80" y="6639.27" type="rail_crossing"/>
    <node id="1542107212" x="5356.68" y="6204.20" type="priority"/>
    <node id="1542107219" x="5409.90" y="6127.59" type="priority"/>
    <node id="1542107221" x="5531.11" y="6088.69" type="priority"/>
    <node id="1542107232" x="5761.64" y="6125.31" type="priority"/>
    <node id="1542107236" x="5305.24" y="6347.96" type="priority"/>
    <node id="1542107251" x="5639.84" y="6101.19" type="priority"/>
    <node id="1542117227" x="5301.08" y="6285.82" type="priority"/>
    <node id="1542117237" x="5045.72" y="6262.42" type="priority"/>
    <node id="1542117246" x="5121.09" y="6360.11" type="priority"/>
    <node id="1542122800" x="4974.26" y="6281.13" type="priority" fringe="inner">
        <param key="buffer_stop" value="true"/>
    </node>
    <node id="1542125129" x="5185.85" y="6296.12" type="priority"/>
    <node id="1542128584" x="5522.73" y="6419.89" type="priority"/>
    <node id="1542128604" x="5548.80" y="6387.77" type="priority"/>
    <node id="1542135092" x="5243.44" y="6141.37" type="priority"/>
    <node id="1542135132" x="5330.53" y="6238.34" type="priority"/>
    <node id="1542138965" x="5228.46" y="6190.38" type="priority" fringe="inner">
        <param key="buffer_stop" value="true"/>
    </node>
    <node id="1542141242" x="5511.11" y="6089.67" type="priority"/>