<?xml version="1.0" encoding="UTF-8"?>

<!-- generated on 2025-04-29 16:00:34 by Eclipse SUMO netconvert Version 1.22.0
<netconvertConfiguration xmlns:xsi="http://www.w3.org/2001/XMLSchema-instance" xsi:noNamespaceSchemaLocation="http://sumo.dlr.de/xsd/netconvertConfiguration.xsd">

    <input>
        <sumo-net-file value="gretz_armainvilliers/gretz_armainvilliers.net.xml"/>
    </input>

    <output>
        <plain-output-prefix value="gretz_armainvilliers/gretz_armainvilliers"/>
    </output>

    <processing>
        <geometry.min-radius.fix.railways value="false"/>
        <geometry.max-grade.fix value="false"/>
        <offset.disable-normalization value="true"/>
        <lefthand value="0"/>
    </processing>

    <tls_building>
        <tls.ignore-internal-junction-jam value="1"/>
    </tls_building>

    <junctions>
        <no-turnarounds value="true"/>
        <junctions.corner-detail value="5"/>
        <junctions.limit-turn-speed value="5.50"/>
        <rectangular-lane-cut value="0"/>
    </junctions>

    <pedestrian>
        <walkingareas value="0"/>
    </pedestrian>

</netconvertConfiguration>
-->

<connections version="1.20" xmlns:xsi="http://www.w3.org/2001/XMLSchema-instance" xsi:noNamespaceSchemaLocation="http://sumo.dlr.de/xsd/connections_file.xsd">
    <connection from="-101189389#0" to="101189389#0" fromLane="0" toLane="0"/>

    <connection from="-101189389#1" to="-101189389#0" fromLane="0" toLane="0"/>
    <connection from="-101189389#1" to="101191522#0" fromLane="0" toLane="0"/>
    <connection from="-101189389#1" to="101189389#1" fromLane="0" toLane="0"/>

    <connection from="-101191518#0" to="365805799#1" fromLane="0" toLane="0"/>
    <connection from="-101191518#0" to="-101191522#1" fromLane="0" toLane="0"/>
    <connection from="-101191518#0" to="-365805799#0" fromLane="0" toLane="0"/>
    <connection from="-101191518#0" to="101191518#0" fromLane="0" toLane="0"/>

    <connection from="-101191518#1" to="-101191524" fromLane="0" toLane="0"/>
    <connection from="-101191518#1" to="-101191518#0" fromLane="0" toLane="0"/>
    <connection from="-101191518#1" to="101191518#1" fromLane="0" toLane="0"/>

    <connection from="-101191522#0" to="101189389#1" fromLane="0" toLane="0"/>
    <connection from="-101191522#0" to="-101189389#0" fromLane="0" toLane="0"/>
    <connection from="-101191522#0" to="101191522#0" fromLane="0" toLane="0"/>

    <connection from="-101191522#1" to="-101191522#0" fromLane="0" toLane="0"/>
    <connection from="-101191522#1" to="-938726097#3" fromLane="0" toLane="0"/>

    <connection from="-101191524" to="101191524" fromLane="0" toLane="0"/>

    <connection from="-101191527#0" to="1241013780" fromLane="0" toLane="0"/>
    <connection from="-101191527#0" to="-365805799#2" fromLane="0" toLane="0"/>
    <connection from="-101191527#0" to="101191527#0" fromLane="0" toLane="0"/>

    <connection from="-101191527#1" to="941746018#0" fromLane="0" toLane="0"/>
    <connection from="-101191527#1" to="-101191527#0" fromLane="0" toLane="0"/>
    <connection from="-101191527#1" to="-101191518#1" fromLane="0" toLane="0"/>
    <connection from="-101191527#1" to="101191527#1" fromLane="0" toLane="0"/>

    <connection from="-1014063063#0" to="1122682169#0" fromLane="0" toLane="0"/>
    <connection from="-1014063063#0" to="1014063063#0" fromLane="0" toLane="0"/>

    <connection from="-1014063063#1" to="-472357231#0" fromLane="0" toLane="0"/>
    <connection from="-1014063063#1" to="-1014063063#0" fromLane="0" toLane="0"/>
    <connection from="-1014063063#1" to="472357231#1" fromLane="0" toLane="0"/>
    <connection from="-1014063063#1" to="1014063063#1" fromLane="0" toLane="0"/>

    <connection from="-1014063063#2" to="-103422853#0" fromLane="0" toLane="0"/>
    <connection from="-1014063063#2" to="-1014063063#1" fromLane="0" toLane="0"/>
    <connection from="-1014063063#2" to="103422853#1" fromLane="0" toLane="0"/>
    <connection from="-1014063063#2" to="1014063063#2" fromLane="0" toLane="0"/>

    <connection from="-101789023#0" to="101789023#0" fromLane="0" toLane="0"/>

    <connection from="-101789023#1" to="1236248131#0" fromLane="0" toLane="0"/>
    <connection from="-101789023#1" to="-101789023#0" fromLane="0" toLane="0"/>

    <connection from="-101789023#2" to="1236248128#0" fromLane="0" toLane="0"/>
    <connection from="-101789023#2" to="-101789023#1" fromLane="0" toLane="0"/>

    <connection from="-101789023#3" to="-1236248130" fromLane="0" toLane="0"/>
    <connection from="-101789023#3" to="-101789023#2" fromLane="0" toLane="0"/>

    <connection from="-101789023#4" to="1236248130" fromLane="0" toLane="0"/>
    <connection from="-101789023#4" to="-101789023#3" fromLane="0" toLane="0"/>

    <connection from="-101789023#5" to="-101789023#4" fromLane="0" toLane="0"/>
    <connection from="-101789023#5" to="313085161#0" fromLane="0" toLane="0"/>
    <connection from="-101789023#5" to="101789023#5" fromLane="0" toLane="0"/>

    <connection from="-101789025#0" to="101789074#2" fromLane="0" toLane="0"/>
    <connection from="-101789025#0" to="-101789074#1" fromLane="0" toLane="0"/>
    <connection from="-101789025#0" to="101789025#0" fromLane="0" toLane="0"/>

    <connection from="-101789025#1" to="-101789095#8" fromLane="0" toLane="0"/>
    <connection from="-101789025#1" to="-101789025#0" fromLane="0" toLane="0"/>
    <connection from="-101789025#1" to="-101789124" fromLane="0" toLane="0"/>
    <connection from="-101789025#1" to="101789025#1" fromLane="0" toLane="0"/>

    <connection from="-101789025#2" to="101789226#4" fromLane="0" toLane="0"/>
    <connection from="-101789025#2" to="-101789025#1" fromLane="0" toLane="0"/>
    <connection from="-101789025#2" to="-101789226#3" fromLane="0" toLane="0"/>
    <connection from="-101789025#2" to="101789025#2" fromLane="0" toLane="0"/>

    <connection from="-101789026#0" to="101789075#2" fromLane="0" toLane="0"/>
    <connection from="-101789026#0" to="-101789075#1" fromLane="0" toLane="0"/>
    <connection from="-101789026#0" to="101789026#0" fromLane="0" toLane="0"/>

    <connection from="-101789026#1" to="-101789026#0" fromLane="0" toLane="0"/>

    <connection from="-101789028#0" to="-101789095#2" fromLane="0" toLane="0"/>
    <connection from="-101789028#0" to="101789095#3" fromLane="0" toLane="0"/>
    <connection from="-101789028#0" to="101789028#0" fromLane="0" toLane="0"/>

    <connection from="-101789028#1" to="-101789028#0" fromLane="0" toLane="0"/>

    <connection from="-101789028#2" to="-101789028#1" fromLane="0" toLane="0"/>
    <connection from="-101789028#2" to="101789034#0" fromLane="0" toLane="0"/>
    <connection from="-101789028#2" to="101789028#2" fromLane="0" toLane="0"/>

    <connection from="-101789029" to="-101789201#0" fromLane="0" toLane="0"/>
    <connection from="-101789029" to="101789201#1" fromLane="0" toLane="0"/>
    <connection from="-101789029" to="101789029" fromLane="0" toLane="0"/>

    <connection from="-101789030" to="-101789139#7" fromLane="0" toLane="0"/>
    <connection from="-101789030" to="101789139#8" fromLane="0" toLane="0"/>
    <connection from="-101789030" to="101789030" fromLane="0" toLane="0"/>

    <connection from="-101789031#0" to="-101789110#0" fromLane="0" toLane="0"/>
    <connection from="-101789031#0" to="101789110#1" fromLane="0" toLane="0"/>
    <connection from="-101789031#0" to="101789031#0" fromLane="0" toLane="0"/>

    <connection from="-101789031#1" to="-101789031#0" fromLane="0" toLane="0"/>
    <connection from="-101789031#1" to="-101789176" fromLane="0" toLane="0"/>
    <connection from="-101789031#1" to="101789031#1" fromLane="0" toLane="0"/>

    <connection from="-101789031#2" to="-101789157" fromLane="0" toLane="0"/>
    <connection from="-101789031#2" to="-101789031#1" fromLane="0" toLane="0"/>
    <connection from="-101789031#2" to="101789031#2" fromLane="0" toLane="0"/>

    <connection from="-101789031#3" to="-101789031#2" fromLane="0" toLane="0"/>
    <connection from="-101789031#3" to="-101789131" fromLane="0" toLane="0"/>
    <connection from="-101789031#3" to="101789031#3" fromLane="0" toLane="0"/>

    <connection from="-101789031#4" to="-101789031#3" fromLane="0" toLane="0"/>
    <connection from="-101789031#4" to="101789131" fromLane="0" toLane="0"/>
    <connection from="-101789031#4" to="101789031#4" fromLane="0" toLane="0"/>

    <connection from="-101789033" to="-101789057#5" fromLane="0" toLane="0"/>
    <connection from="-101789033" to="101789057#6" fromLane="0" toLane="0"/>
    <connection from="-101789033" to="101789033" fromLane="0" toLane="0"/>

    <connection from="-101789034#0" to="101789028#2" fromLane="0" toLane="0"/>
    <connection from="-101789034#0" to="-101789028#1" fromLane="0" toLane="0"/>
    <connection from="-101789034#0" to="101789034#0" fromLane="0" toLane="0"/>

    <connection from="-101789034#1" to="101789062#0" fromLane="0" toLane="0"/>
    <connection from="-101789034#1" to="-101789034#0" fromLane="0" toLane="0"/>
    <connection from="-101789034#1" to="101789034#1" fromLane="0" toLane="0"/>

    <connection from="-101789042#0" to="101789101#5" fromLane="0" toLane="0"/>
    <connection from="-101789042#0" to="-101789101#4" fromLane="0" toLane="0"/>
    <connection from="-101789042#0" to="101789042#0" fromLane="0" toLane="0"/>

    <connection from="-101789042#1" to="-101789146" fromLane="0" toLane="0"/>
    <connection from="-101789042#1" to="-101789042#0" fromLane="0" toLane="0"/>
    <connection from="-101789042#1" to="101789042#1" fromLane="0" toLane="0"/>

    <connection from="-101789042#2" to="-101789042#1" fromLane="0" toLane="0"/>

    <connection from="-101789044#0" to="343615116#0" fromLane="0" toLane="0"/>
    <connection from="-101789044#0" to="938428624" fromLane="0" toLane="0"/>
    <connection from="-101789044#0" to="-938144505" fromLane="0" toLane="0"/>
    <connection from="-101789044#0" to="101789044#0" fromLane="0" toLane="0"/>

    <connection from="-101789044#1" to="-197000745#3" fromLane="0" toLane="0"/>
    <connection from="-101789044#1" to="-101789044#0" fromLane="0" toLane="0"/>
    <connection from="-101789044#1" to="101789044#1" fromLane="0" toLane="0"/>

    <connection from="-101789044#2" to="101789216#0" fromLane="0" toLane="0"/>
    <connection from="-101789044#2" to="-101789044#1" fromLane="0" toLane="0"/>
    <connection from="-101789044#2" to="101789044#2" fromLane="0" toLane="0"/>

    <connection from="-101789048#0" to="-101789195" fromLane="0" toLane="0"/>
    <connection from="-101789048#0" to="101789133#0" fromLane="0" toLane="0"/>
    <connection from="-101789048#0" to="943624317#0" fromLane="0" toLane="0"/>
    <connection from="-101789048#0" to="101789048#0" fromLane="0" toLane="0"/>

    <connection from="-101789048#1" to="-757867015" fromLane="0" toLane="0"/>
    <connection from="-101789048#1" to="-101789048#0" fromLane="0" toLane="0"/>

    <connection from="-101789048#2" to="-101789186" fromLane="0" toLane="0"/>
    <connection from="-101789048#2" to="-101789048#1" fromLane="0" toLane="0"/>
    <connection from="-101789048#2" to="101789048#2" fromLane="0" toLane="0"/>

    <connection from="-101789048#3" to="-101789048#2" fromLane="0" toLane="0"/>
    <connection from="-101789048#3" to="-101789066#1" fromLane="0" toLane="0"/>
    <connection from="-101789048#3" to="101789048#3" fromLane="0" toLane="0"/>

    <connection from="-101789048#4" to="-101789048#3" fromLane="0" toLane="0"/>
    <connection from="-101789048#4" to="101789101#0" fromLane="0" toLane="0"/>
    <connection from="-101789048#4" to="101789048#4" fromLane="0" toLane="0"/>

    <connection from="-101789048#5" to="-101789048#4" fromLane="0" toLane="0"/>
    <connection from="-101789048#5" to="101789049" fromLane="0" toLane="0"/>
    <connection from="-101789048#5" to="101789048#5" fromLane="0" toLane="0"/>

    <connection from="-101789049" to="101789048#5" fromLane="0" toLane="0"/>
    <connection from="-101789049" to="-101789048#4" fromLane="0" toLane="0"/>
    <connection from="-101789049" to="101789049" fromLane="0" toLane="0"/>

    <connection from="-101789053#0" to="-777013040#2" fromLane="0" toLane="0"/>
    <connection from="-101789053#0" to="777013040#3" fromLane="0" toLane="0"/>
    <connection from="-101789053#0" to="101789053#0" fromLane="0" toLane="0"/>

    <connection from="-101789053#1" to="197922719#6" fromLane="0" toLane="0"/>
    <connection from="-101789053#1" to="-101789053#0" fromLane="0" toLane="0"/>
    <connection from="-101789053#1" to="-197922719#5" fromLane="0" toLane="0"/>
    <connection from="-101789053#1" to="101789053#1" fromLane="0" toLane="0"/>

    <connection from="-101789053#2" to="-101789053#1" fromLane="0" toLane="0"/>

    <connection from="-101789055#0" to="101789095#1" fromLane="0" toLane="0"/>
    <connection from="-101789055#0" to="-101789095#0" fromLane="0" toLane="0"/>
    <connection from="-101789055#0" to="101789055#0" fromLane="0" toLane="0"/>

    <connection from="-101789055#1" to="-101789055#0" fromLane="0" toLane="0"/>

    <connection from="-101789057#0" to="101789224#0" fromLane="0" toLane="0"/>
    <connection from="-101789057#0" to="-942681126#1" fromLane="0" toLane="0"/>
    <connection from="-101789057#0" to="101789057#0" fromLane="0" toLane="0"/>

    <connection from="-101789057#1" to="-101789057#0" fromLane="0" toLane="0"/>

    <connection from="-101789057#2" to="147140034" fromLane="0" toLane="0"/>
    <connection from="-101789057#2" to="-101789057#1" fromLane="0" toLane="0"/>
    <connection from="-101789057#2" to="101789057#2" fromLane="0" toLane="0"/>

    <connection from="-101789057#3" to="-101789063#6" fromLane="0" toLane="0"/>
    <connection from="-101789057#3" to="-101789057#2" fromLane="0" toLane="0"/>
    <connection from="-101789057#3" to="101789057#3" fromLane="0" toLane="0"/>

    <connection from="-101789057#4" to="101789063#0" fromLane="0" toLane="0"/>
    <connection from="-101789057#4" to="-101789057#3" fromLane="0" toLane="0"/>
    <connection from="-101789057#4" to="101789057#4" fromLane="0" toLane="0"/>

    <connection from="-101789057#5" to="-101789057#4" fromLane="0" toLane="0"/>

    <connection from="-101789057#6" to="101789033" fromLane="0" toLane="0"/>
    <connection from="-101789057#6" to="-101789057#5" fromLane="0" toLane="0"/>
    <connection from="-101789057#6" to="101789057#6" fromLane="0" toLane="0"/>

    <connection from="-101789058#0" to="943798929#0" fromLane="0" toLane="0" visibility="9.00"/>

    <connection from="-101789058#1" to="-101789058#0" fromLane="0" toLane="0"/>
    <connection from="-101789058#1" to="101789058#1" fromLane="0" toLane="0"/>

    <connection from="-101789058#2" to="-101789058#1" fromLane="0" toLane="0"/>
    <connection from="-101789058#2" to="101806605#0" fromLane="0" toLane="0"/>
    <connection from="-101789058#2" to="101789058#2" fromLane="0" toLane="0"/>

    <connection from="-101789058#3" to="101789117#0" fromLane="0" toLane="0"/>
    <connection from="-101789058#3" to="-101789058#2" fromLane="0" toLane="0"/>
    <connection from="-101789058#3" to="101789058#3" fromLane="0" toLane="0"/>

    <connection from="-101789058#4" to="-101789058#3" fromLane="0" toLane="0"/>
    <connection from="-101789058#4" to="-54440777" fromLane="0" toLane="0"/>
    <connection from="-101789058#4" to="101789058#4" fromLane="0" toLane="0"/>

    <connection from="-101789060#0" to="-101789060#3" fromLane="0" toLane="0"/>
    <connection from="-101789060#0" to="101789060#4" fromLane="0" toLane="0"/>

    <connection from="-101789060#1" to="-101789215#3" fromLane="0" toLane="0"/>
    <connection from="-101789060#1" to="-101789060#0" fromLane="0" toLane="0"/>
    <connection from="-101789060#1" to="101789215#4" fromLane="0" toLane="0"/>
    <connection from="-101789060#1" to="101789060#1" fromLane="0" toLane="0"/>

    <connection from="-101789060#2" to="-101789060#1" fromLane="0" toLane="0"/>
    <connection from="-101789060#2" to="101789060#2" fromLane="0" toLane="0"/>

    <connection from="-101789060#3" to="101789215#5" fromLane="0" toLane="0"/>
    <connection from="-101789060#3" to="-101789060#2" fromLane="0" toLane="0"/>
    <connection from="-101789060#3" to="-101789215#4" fromLane="0" toLane="0"/>
    <connection from="-101789060#3" to="101789060#3" fromLane="0" toLane="0"/>

    <connection from="-101789062#0" to="-101789034#0" fromLane="0" toLane="0"/>
    <connection from="-101789062#0" to="101789034#1" fromLane="0" toLane="0"/>
    <connection from="-101789062#0" to="101789062#0" fromLane="0" toLane="0"/>

    <connection from="-101789062#1" to="-101789062#0" fromLane="0" toLane="0"/>
    <connection from="-101789062#1" to="-101789114" fromLane="0" toLane="0"/>
    <connection from="-101789062#1" to="101789062#1" fromLane="0" toLane="0"/>

    <connection from="-101789063#0" to="-101789057#3" fromLane="0" toLane="0"/>
    <connection from="-101789063#0" to="101789057#4" fromLane="0" toLane="0"/>
    <connection from="-101789063#0" to="101789063#0" fromLane="0" toLane="0"/>

    <connection from="-101789063#1" to="-101789063#0" fromLane="0" toLane="0"/>
    <connection from="-101789063#1" to="-101789092" fromLane="0" toLane="0"/>
    <connection from="-101789063#1" to="101789063#1" fromLane="0" toLane="0"/>

    <connection from="-101789063#2" to="-101789063#1" fromLane="0" toLane="0"/>

    <connection from="-101789063#3" to="-101789063#2" fromLane="0" toLane="0"/>

    <connection from="-101789063#4" to="-101789063#3" fromLane="0" toLane="0"/>

    <connection from="-101789063#5" to="-101789063#4" fromLane="0" toLane="0"/>
    <connection from="-101789063#5" to="-101789121" fromLane="0" toLane="0"/>
    <connection from="-101789063#5" to="101789063#5" fromLane="0" toLane="0"/>

    <connection from="-101789063#6" to="-101789063#5" fromLane="0" toLane="0"/>

    <connection from="-101789066#0" to="-360907961#0" fromLane="0" toLane="0"/>
    <connection from="-101789066#0" to="360907961#1" fromLane="0" toLane="0"/>
    <connection from="-101789066#0" to="101789066#0" fromLane="0" toLane="0"/>

    <connection from="-101789066#1" to="-101789066#0" fromLane="0" toLane="0"/>
    <connection from="-101789066#1" to="-374481642" fromLane="0" toLane="0"/>
    <connection from="-101789066#1" to="101789066#1" fromLane="0" toLane="0"/>

    <connection from="-101789067#0" to="-78047947#3" fromLane="0" toLane="0"/>
    <connection from="-101789067#0" to="-757867006" fromLane="0" toLane="0"/>
    <connection from="-101789067#0" to="78047947#4" fromLane="0" toLane="0"/>

    <connection from="-101789067#1" to="-101789067#0" fromLane="0" toLane="0"/>
    <connection from="-101789067#1" to="757867007" fromLane="0" toLane="0"/>
    <connection from="-101789067#1" to="101789067#1" fromLane="0" toLane="0"/>

    <connection from="-101789069#0" to="101789069#2" fromLane="0" toLane="0"/>
    <connection from="-101789069#0" to="-101789069#1" fromLane="0" toLane="0"/>
    <connection from="-101789069#0" to="101789069#0" fromLane="0" toLane="0"/>

    <connection from="-101789069#1" to="-906631614" fromLane="0" toLane="0"/>
    <connection from="-101789069#1" to="-101789069#0" fromLane="0" toLane="0"/>
    <connection from="-101789069#1" to="101789069#1" fromLane="0" toLane="0"/>

    <connection from="-101789069#10" to="-101789210" fromLane="0" toLane="0"/>
    <connection from="-101789069#10" to="-101789069#9" fromLane="0" toLane="0"/>
    <connection from="-101789069#10" to="101789069#10" fromLane="0" toLane="0"/>

    <connection from="-101789069#2" to="-101789069#1" fromLane="0" toLane="0"/>
    <connection from="-101789069#2" to="101789069#0" fromLane="0" toLane="0"/>
    <connection from="-101789069#2" to="101789069#2" fromLane="0" toLane="0"/>

    <connection from="-101789069#3" to="-101789218" fromLane="0" toLane="0"/>
    <connection from="-101789069#3" to="-101789069#2" fromLane="0" toLane="0"/>
    <connection from="-101789069#3" to="101789069#3" fromLane="0" toLane="0"/>

    <connection from="-101789069#4" to="-101789069#3" fromLane="0" toLane="0"/>
    <connection from="-101789069#4" to="-101789151" fromLane="0" toLane="0"/>
    <connection from="-101789069#4" to="101789069#4" fromLane="0" toLane="0"/>

    <connection from="-101789069#5" to="-101789201#1" fromLane="0" toLane="0"/>
    <connection from="-101789069#5" to="-101789069#4" fromLane="0" toLane="0"/>
    <connection from="-101789069#5" to="101789069#5" fromLane="0" toLane="0"/>

    <connection from="-101789069#6" to="-101789069#5" fromLane="0" toLane="0"/>
    <connection from="-101789069#6" to="-101789107" fromLane="0" toLane="0"/>
    <connection from="-101789069#6" to="101789069#6" fromLane="0" toLane="0"/>

    <connection from="-101789069#7" to="-101789030" fromLane="0" toLane="0"/>
    <connection from="-101789069#7" to="-101789069#6" fromLane="0" toLane="0"/>
    <connection from="-101789069#7" to="101789069#7" fromLane="0" toLane="0"/>

    <connection from="-101789069#8" to="-101789178" fromLane="0" toLane="0"/>
    <connection from="-101789069#8" to="-101789069#7" fromLane="0" toLane="0"/>
    <connection from="-101789069#8" to="101789069#8" fromLane="0" toLane="0"/>

    <connection from="-101789069#9" to="-101789069#8" fromLane="0" toLane="0"/>
    <connection from="-101789069#9" to="-101789113" fromLane="0" toLane="0"/>
    <connection from="-101789069#9" to="101789069#9" fromLane="0" toLane="0"/>

    <connection from="-101789072" to="-943624317#2" fromLane="0" toLane="0"/>
    <connection from="-101789072" to="943624317#3" fromLane="0" toLane="0"/>
    <connection from="-101789072" to="101789072" fromLane="0" toLane="0"/>

    <connection from="-101789074#0" to="197922719#8" fromLane="0" toLane="0"/>
    <connection from="-101789074#0" to="-197922719#7" fromLane="0" toLane="0"/>
    <connection from="-101789074#0" to="101789074#0" fromLane="0" toLane="0"/>

    <connection from="-101789074#1" to="-101789074#0" fromLane="0" toLane="0"/>

    <connection from="-101789074#2" to="-101789074#1" fromLane="0" toLane="0"/>
    <connection from="-101789074#2" to="101789025#0" fromLane="0" toLane="0"/>
    <connection from="-101789074#2" to="101789074#2" fromLane="0" toLane="0"/>

    <connection from="-101789074#3" to="-101789074#2" fromLane="0" toLane="0"/>
    <connection from="-101789074#3" to="101789110#0" fromLane="0" toLane="0"/>
    <connection from="-101789074#3" to="101789074#3" fromLane="0" toLane="0"/>

    <connection from="-101789074#4" to="-101789074#3" fromLane="0" toLane="0"/>
    <connection from="-101789074#4" to="-101789031#4" fromLane="0" toLane="0"/>
    <connection from="-101789074#4" to="101789074#4" fromLane="0" toLane="0"/>

    <connection from="-101789074#5" to="-101789074#4" fromLane="0" toLane="0"/>

    <connection from="-101789075#0" to="1343669886" fromLane="0" toLane="0"/>
    <connection from="-101789075#0" to="-1343669885#4" fromLane="0" toLane="0"/>
    <connection from="-101789075#0" to="1343669884" fromLane="0" toLane="0"/>
    <connection from="-101789075#0" to="101789075#0" fromLane="0" toLane="0"/>

    <connection from="-101789075#1" to="101789098#0" fromLane="0" toLane="0"/>
    <connection from="-101789075#1" to="-101789075#0" fromLane="0" toLane="0"/>
    <connection from="-101789075#1" to="-472357235" fromLane="0" toLane="0"/>
    <connection from="-101789075#1" to="101789075#1" fromLane="0" toLane="0"/>

    <connection from="-101789075#2" to="-101789075#1" fromLane="0" toLane="0"/>
    <connection from="-101789075#2" to="101789026#0" fromLane="0" toLane="0"/>
    <connection from="-101789075#2" to="101789075#2" fromLane="0" toLane="0"/>

    <connection from="-101789075#3" to="-101789055#1" fromLane="0" toLane="0"/>
    <connection from="-101789075#3" to="-101789075#2" fromLane="0" toLane="0"/>
    <connection from="-101789075#3" to="101789075#3" fromLane="0" toLane="0"/>

    <connection from="-101789075#4" to="101789165#0" fromLane="0" toLane="0"/>
    <connection from="-101789075#4" to="-101789075#3" fromLane="0" toLane="0"/>
    <connection from="-101789075#4" to="101789075#4" fromLane="0" toLane="0"/>

    <connection from="-101789075#5" to="-101789075#4" fromLane="0" toLane="0"/>
    <connection from="-101789075#5" to="101789109#0" fromLane="0" toLane="0"/>
    <connection from="-101789075#5" to="101789075#5" fromLane="0" toLane="0"/>

    <connection from="-101789082#0" to="197922719#0" fromLane="0" toLane="0"/>
    <connection from="-101789082#0" to="-941862953#1" fromLane="0" toLane="0"/>
    <connection from="-101789082#0" to="101789082#0" fromLane="0" toLane="0"/>

    <connection from="-101789082#1" to="-101789082#0" fromLane="0" toLane="0"/>
    <connection from="-101789082#1" to="938162243" fromLane="0" toLane="0"/>
    <connection from="-101789082#1" to="101789082#1" fromLane="0" toLane="0"/>

    <connection from="-101789082#2" to="-101789082#1" fromLane="0" toLane="0"/>
    <connection from="-101789082#2" to="101789082#2" fromLane="0" toLane="0"/>

    <connection from="-101789082#3" to="-101789082#2" fromLane="0" toLane="0"/>
    <connection from="-101789082#3" to="938162242" fromLane="0" toLane="0"/>
    <connection from="-101789082#3" to="101789082#3" fromLane="0" toLane="0"/>

    <connection from="-101789082#4" to="-101789082#3" fromLane="0" toLane="0"/>
    <connection from="-101789082#4" to="101789082#4" fromLane="0" toLane="0"/>

    <connection from="-101789082#5" to="938162246#0" fromLane="0" toLane="0"/>
    <connection from="-101789082#5" to="-101789082#4" fromLane="0" toLane="0"/>
    <connection from="-101789082#5" to="101789082#5" fromLane="0" toLane="0"/>

    <connection from="-101789082#6" to="938162245" fromLane="0" toLane="0"/>
    <connection from="-101789082#6" to="-101789082#5" fromLane="0" toLane="0"/>
    <connection from="-101789082#6" to="101789082#6" fromLane="0" toLane="0"/>

    <connection from="-101789082#7" to="938162244" fromLane="0" toLane="0"/>
    <connection from="-101789082#7" to="-101789082#6" fromLane="0" toLane="0"/>
    <connection from="-101789082#7" to="101789082#7" fromLane="0" toLane="0"/>

    <connection from="-101789082#8" to="-101789082#7" fromLane="0" toLane="0"/>
    <connection from="-101789082#8" to="101789082#8" fromLane="0" toLane="0"/>

    <connection from="-101789086" to="-1209842903#1" fromLane="0" toLane="0"/>
    <connection from="-101789086" to="1209842903#2" fromLane="0" toLane="0"/>

    <connection from="-101789088" to="101789095#7" fromLane="0" toLane="0"/>
    <connection from="-101789088" to="-101789095#6" fromLane="0" toLane="0"/>
    <connection from="-101789088" to="101789088" fromLane="0" toLane="0"/>

    <connection from="-101789092" to="101789092" fromLane="0" toLane="0"/>

    <connection from="-101789095#0" to="-101789028#2" fromLane="0" toLane="0"/>
    <connection from="-101789095#0" to="-472357236" fromLane="0" toLane="0"/>
    <connection from="-101789095#0" to="101789095#0" fromLane="0" toLane="0"/>

    <connection from="-101789095#1" to="-101789095#0" fromLane="0" toLane="0"/>
    <connection from="-101789095#1" to="101789055#0" fromLane="0" toLane="0"/>
    <connection from="-101789095#1" to="101789095#1" fromLane="0" toLane="0"/>

    <connection from="-101789095#2" to="-101789095#1" fromLane="0" toLane="0"/>
    <connection from="-101789095#2" to="-101789165#1" fromLane="0" toLane="0"/>
    <connection from="-101789095#2" to="101789095#2" fromLane="0" toLane="0"/>

    <connection from="-101789095#3" to="101789028#0" fromLane="0" toLane="0"/>
    <connection from="-101789095#3" to="-101789095#2" fromLane="0" toLane="0"/>
    <connection from="-101789095#3" to="101789095#3" fromLane="0" toLane="0"/>

    <connection from="-101789095#4" to="-101789095#3" fromLane="0" toLane="0"/>

    <connection from="-101789095#5" to="-101789095#4" fromLane="0" toLane="0"/>

    <connection from="-101789095#6" to="-101789025#2" fromLane="0" toLane="0"/>
    <connection from="-101789095#6" to="-101789095#5" fromLane="0" toLane="0"/>
    <connection from="-101789095#6" to="101789095#6" fromLane="0" toLane="0"/>

    <connection from="-101789095#7" to="-101789095#6" fromLane="0" toLane="0"/>
    <connection from="-101789095#7" to="101789088" fromLane="0" toLane="0"/>
    <connection from="-101789095#7" to="101789095#7" fromLane="0" toLane="0"/>

    <connection from="-101789095#8" to="-101789226#4" fromLane="0" toLane="0"/>
    <connection from="-101789095#8" to="-101789095#7" fromLane="0" toLane="0"/>
    <connection from="-101789095#8" to="101789226#5" fromLane="0" toLane="0"/>
    <connection from="-101789095#8" to="101789095#8" fromLane="0" toLane="0"/>

    <connection from="-101789096" to="101789096" fromLane="0" toLane="0"/>

    <connection from="-101789098#0" to="-101789075#0" fromLane="0" toLane="0"/>
    <connection from="-101789098#0" to="-472357235" fromLane="0" toLane="0"/>
    <connection from="-101789098#0" to="101789075#1" fromLane="0" toLane="0"/>
    <connection from="-101789098#0" to="101789098#0" fromLane="0" toLane="0"/>

    <connection from="-101789098#1" to="-101789098#0" fromLane="0" toLane="0"/>

    <connection from="-101789101#0" to="101789048#4" fromLane="0" toLane="0"/>
    <connection from="-101789101#0" to="-101789048#3" fromLane="0" toLane="0"/>
    <connection from="-101789101#0" to="101789101#0" fromLane="0" toLane="0"/>

    <connection from="-101789101#1" to="-101789101#0" fromLane="0" toLane="0"/>
    <connection from="-101789101#1" to="147140082#0" fromLane="0" toLane="0"/>
    <connection from="-101789101#1" to="101789101#1" fromLane="0" toLane="0"/>

    <connection from="-101789101#2" to="101789135" fromLane="0" toLane="0"/>
    <connection from="-101789101#2" to="-101789101#1" fromLane="0" toLane="0"/>
    <connection from="-101789101#2" to="101789101#2" fromLane="0" toLane="0"/>

    <connection from="-101789101#3" to="-101789101#2" fromLane="0" toLane="0"/>