<?xml version="1.0" encoding="UTF-8"?>

<!-- generated on 2025-04-29 16:00:34 by Eclipse SUMO netconvert Version 1.22.0
<netconvertConfiguration xmlns:xsi="http://www.w3.org/2001/XMLSchema-instance" xsi:noNamespaceSchemaLocation="http://sumo.dlr.de/xsd/netconvertConfiguration.xsd">

    <input>
        <sumo-net-file value="gretz_armainvilliers/gretz_armainvilliers.net.xml"/>
    </input>

    <output>
        <plain-output-prefix value="gretz_armainvilliers/gretz_armainvilliers"/>
    </output>

    <processing>
        <geometry.min-radius.fix.railways value="false"/>
        <geometry.max-grade.fix value="false"/>
        <offset.disable-normalization value="true"/>
        <lefthand value="0"/>
    </processing>

    <tls_building>
        <tls.ignore-internal-junction-jam value="1"/>
    </tls_building>

    <junctions>
        <no-turnarounds value="true"/>
        <junctions.corner-detail value="5"/>
        <junctions.limit-turn-speed value="5.50"/>
        <rectangular-lane-cut value="0"/>
    </junctions>

    <pedestrian>
        <walkingareas value="0"/>
    </pedestrian>

</netconvertConfiguration>
-->

<nodes version="1.20" xmlns:xsi="http://www.w3.org/2001/XMLSchema-instance" xsi:noNamespaceSchemaLocation="http://sumo.dlr.de/xsd/nodes_file.xsd">
    <location netOffset="-474678.15,-5395454.98" convBoundary="0.00,0.00,14846.64,9168.75" origBoundary="2.655220,48.711970,2.857499,48.794092" projParameter="+proj=utm +zone=31 +ellps=WGS84 +datum=WGS84 +units=m +no_defs"/>

    <node id="10038963455" x="9845.99" y="2538.28" type="right_before_left"/>
    <node id="10038963456" x="9839.76" y="2586.62" type="priority"/>
    <node id="10038963457" x="9846.04" y="2682.06" type="priority"/>
    <node id="10038963458" x="9870.33" y="2477.29" type="priority"/>
    <node id="10038963459" x="9862.86" y="2540.23" type="right_before_left"/>
    <node id="10038963460" x="9798.22" y="2532.75" type="right_before_left"/>
    <node id="10038963474" x="9797.46" y="2726.55" type="right_before_left"/>
    <node id="10038963476" x="9855.42" y="2735.34" type="right_before_left"/>
    <node id="10038963477" x="9826.67" y="2695.67" type="right_before_left"/>
    <node id="10038963478" x="9797.22" y="2709.16" type="right_before_left"/>
    <node id="10038963482" x="9808.54" y="2577.26" type="priority"/>
    <node id="10038963491" x="9859.70" y="2699.77" type="right_before_left"/>
    <node id="10038963492" x="9836.91" y="2696.65" type="right_before_left"/>
    <node id="10038963494" x="9797.76" y="2569.22" type="right_before_left"/>
    <node id="10267827488" x="7068.49" y="3012.91" type="priority"/>
    <node id="10267827490" x="7263.98" y="3006.19" type="priority"/>
    <node id="10267827491" x="7316.06" y="3004.20" type="priority"/>
    <node id="10267827492" x="7465.43" y="2998.46" type="right_before_left"/>
    <node id="10284262867" x="10111.76" y="2489.22" type="priority"/>
    <node id="10284302616" x="9452.49" y="1602.71" type="priority"/>
    <node id="10284302671" x="9101.88" y="1198.48" type="priority"/>
    <node id="10284302672" x="9105.62" y="1193.86" type="priority"/>
    <node id="10284302733" x="8376.18" y="1151.71" type="priority"/>
    <node id="10285646997" x="11143.62" y="7018.10" type="priority"/>
    <node id="10285646998" x="11139.36" y="7019.05" type="priority"/>
    <node id="10285647077" x="11046.48" y="6111.61" type="priority"/>
    <node id="10594512283" x="4158.47" y="4644.55" type="rail_signal">
        <param key="railway:signal:direction" value="forward"/>
    </node>
    <node id="10594542714" x="5091.09" y="4095.18" type="priority"/>
    <node id="10594542727" x="5201.70" y="3967.47" type="priority">
        <param key="crossing:barrier" value="no"/>
        <param key="crossing:light" value="no"/>
    </node>
    <node id="1061619980" x="3150.82" y="2321.08" type="priority"/>
    <node id="1061633868" x="3905.68" y="3832.62" type="priority"/>
    <node id="1063882263" x="3254.12" y="1989.11" type="priority"/>
    <node id="1066921353#1-AddedOffRampNode" x="4975.37" y="2399.74" type="priority"/>
    <node id="1066921353#2-AddedOffRampNode" x="5615.71" y="2489.38" type="priority"/>
    <node id="1066921355-AddedOnRampNode" x="5680.91" y="2506.32" type="priority"/>
    <node id="10724559261" x="8713.32" y="3756.10" type="priority"/>
    <node id="10724559262" x="8738.14" y="3782.73" type="priority"/>
    <node id="1081911560" x="9683.83" y="2523.09" type="priority"/>
    <node id="1081911577" x="9575.88" y="3170.12" type="dead_end" fringe="inner">
        <param key="buffer_stop" value="true"/>
    </node>
    <node id="1081911734" x="10474.64" y="2098.95" type="dead_end" fringe="inner">
        <param key="buffer_stop" value="true"/>
    </node>
    <node id="1081912380" x="10424.64" y="2110.57" type="priority"/>
    <node id="1081912577" x="10041.30" y="2209.17" type="priority"/>
    <node id="1081912599" x="10334.06" y="2149.23" type="priority"/>
    <node id="1081912673" x="9570.04" y="2650.33" type="priority"/>
    <node id="1081912694" x="10127.77" y="2173.78" type="priority"/>
    <node id="1081912713" x="10624.67" y="2016.13" type="priority"/>
    <node id="1081912825" x="10218.68" y="2299.90" type="rail_crossing"/>
    <node id="1081912873" x="10023.43" y="2198.14" type="priority"/>
    <node id="1081912896" x="11125.55" y="1935.22" type="dead_end" fringe="inner">
        <param key="buffer_stop" value="true"/>
    </node>
    <node id="1081912946" x="10011.25" y="2213.42" type="priority"/>
    <node id="1094528816" x="5266.71" y="3742.05" type="priority"/>
    <node id="11081805699" x="6145.51" y="2451.59" type="priority"/>
    <node id="1111969821" x="6048.77" y="3044.86" type="priority"/>
    <node id="1111969844" x="5928.88" y="3252.76" type="priority"/>
    <node id="1111969849" x="6057.69" y="2892.88" type="priority"/>
    <node id="1111969851" x="6125.13" y="3116.54" type="priority"/>
    <node id="11208523744" x="8290.69" y="4716.41" type="priority"/>
    <node id="11252482138" x="11059.56" y="5402.87" type="priority" fringe="inner">
        <param key="buffer_stop" value="true"/>
    </node>
    <node id="11252482144" x="11075.70" y="5589.35" type="priority" fringe="inner">
        <param key="buffer_stop" value="true"/>
    </node>
    <node id="11285920868" x="6181.57" y="3362.12" type="right_before_left"/>
    <node id="11285974569" x="6190.77" y="3378.49" type="right_before_left"/>
    <node id="11285974574" x="6087.68" y="3417.27" type="right_before_left"/>
    <node id="11285974575" x="6124.86" y="3396.74" type="right_before_left"/>
    <node id="11285974576" x="6054.85" y="3435.39" type="right_before_left"/>
    <node id="11285974577" x="6100.22" y="3440.91" type="right_before_left"/>
    <node id="11285974578" x="6095.15" y="3431.35" type="right_before_left"/>
    <node id="11285974579" x="6079.02" y="3400.97" type="right_before_left"/>
    <node id="11285974580" x="6119.32" y="3476.91" type="right_before_left"/>
    <node id="11285974583" x="6132.37" y="3410.77" type="right_before_left"/>
    <node id="11285974584" x="6216.32" y="3364.38" type="priority"/>
    <node id="11285974586" x="6137.36" y="3420.09" type="right_before_left"/>
    <node id="11285974590" x="6118.23" y="3384.36" type="right_before_left"/>
    <node id="11379995638" x="5397.03" y="3747.97" type="priority"/>
    <node id="11379995651" x="5400.19" y="3744.86" type="dead_end"/>
    <node id="11379995659" x="5348.01" y="3825.19" type="priority"/>
    <node id="11379995660" x="5377.93" y="3791.39" type="dead_end"/>
    <node id="11379995663" x="5385.22" y="3747.84" type="dead_end"/>
    <node id="11379995665" x="5406.75" y="3730.63" type="dead_end"/>
    <node id="11380008589" x="5384.70" y="3747.51" type="dead_end"/>
    <node id="11380008590" x="5383.35" y="3746.38" type="dead_end"/>
    <node id="11380008592" x="5376.16" y="3758.83" type="dead_end"/>
    <node id="11428408760" x="7705.65" y="2921.88" type="priority"/>
    <node id="11428408761" x="7701.07" y="2926.46" type="priority"/>
    <node id="11428408763" x="7695.26" y="2920.73" type="priority"/>
    <node id="11428408764" x="6767.44" y="3050.62" type="priority"/>
    <node id="11476320629" x="8220.45" y="3519.11" type="dead_end"/>
    <node id="11476386065" x="8228.04" y="3484.23" type="dead_end"/>
    <node id="11476386067" x="8228.75" y="3488.59" type="dead_end"/>
    <node id="11476386068" x="8190.68" y="3416.61" type="dead_end"/>
    <node id="11476396870" x="8197.24" y="3414.98" type="dead_end"/>
    <node id="11476396871" x="8135.61" y="3415.22" type="dead_end"/>
    <node id="11476396872" x="8134.20" y="3412.76" type="dead_end"/>
    <node id="11478387760" x="11253.70" y="5104.78" type="priority"/>
    <node id="11478387763" x="11292.49" y="5059.36" type="right_before_left"/>
    <node id="11478387764" x="11308.26" y="5032.73" type="priority"/>
    <node id="11478387765" x="11396.13" y="5133.75" type="priority"/>
    <node id="11478387766" x="11194.43" y="5010.73" type="priority"/>
    <node id="11478401074" x="11219.79" y="5037.63" type="priority"/>
    <node id="11478401076" x="11318.68" y="5078.16" type="right_before_left"/>
    <node id="11478401077" x="11333.95" y="5057.21" type="priority"/>
    <node id="11530205339" x="9166.52" y="5778.81" type="priority"/>
    <node id="11530699541" x="7994.43" y="3272.79" type="priority"/>
    <node id="11586639965" x="7594.58" y="3806.54" type="dead_end"/>
    <node id="1167166901" x="10039.91" y="2207.38" type="priority"/>
    <node id="1167167361" x="10091.66" y="2187.01" type="dead_end" fringe="inner">
        <param key="buffer_stop" value="true"/>
    </node>
    <node id="1168300720" x="8600.26" y="5745.90" type="priority"/>
    <node id="1168300754" x="8557.01" y="5329.54" type="priority"/>
    <node id="1168300807" x="8719.38" y="5707.47" type="priority"/>
    <node id="1168307285" x="9014.06" y="5283.77" type="priority"/>
    <node id="1168307293" x="8877.58" y="5671.82" type="dead_end"/>
    <node id="1168307334" x="8803.74" y="5498.47" type="priority"/>
    <node id="1168307337" x="8967.31" y="5344.32" type="priority"/>
    <node id="1168307346" x="8652.47" y="5325.25" type="priority"/>
    <node id="1168307354" x="8745.80" y="5559.95" type="priority"/>
    <node id="1168307384" x="8650.64" y="5408.61" type="priority"/>
    <node id="1168307397" x="8552.83" y="5319.92" type="priority"/>
    <node id="1175036156" x="7318.53" y="3878.15" type="priority"/>
    <node id="1175036160" x="7934.18" y="3822.29" type="priority"/>
    <node id="1175036163" x="9076.77" y="3211.63" type="priority"/>
    <node id="1175036181" x="8944.61" y="3421.65" type="priority"/>
    <node id="1175036190" x="7697.70" y="3441.49" type="priority"/>
    <node id="1175036212" x="8077.68" y="3173.94" type="priority"/>
    <node id="1175036239" x="8447.60" y="3691.45" type="priority"/>
    <node id="1175036240" x="9058.05" y="3281.90" type="priority"/>
    <node id="1175036246" x="8505.70" y="3639.88" type="priority"/>
    <node id="1175036264" x="7946.51" y="3735.68" type="priority"/>
    <node id="1175036276" x="7329.67" y="3839.80" type="priority"/>
    <node id="1175036281" x="9139.00" y="3217.54" type="priority"/>
    <node id="1175036283" x="6975.18" y="3677.63" type="priority"/>
    <node id="1175036288" x="9243.20" y="3103.24" type="priority"/>
    <node id="1175036291" x="7618.45" y="3540.89" type="priority"/>
    <node id="1175036317" x="7856.53" y="3842.17" type="priority"/>
    <node id="1175036320" x="8976.47" y="3163.99" type="priority"/>
    <node id="1175036322" x="9234.86" y="3198.68" type="priority"/>
    <node id="1175036334" x="8740.39" y="3582.31" type="priority"/>
    <node id="1175036353" x="8971.17" y="3614.53" type="priority"/>
    <node id="1175036370" x="7397.46" y="3844.08" type="priority"/>
    <node id="1175036372" x="7620.44" y="3863.79" type="priority"/>
    <node id="1175036410" x="8519.85" y="3665.77" type="priority"/>
    <node id="1175036424" x="7177.39" y="3641.81" type="priority"/>
    <node id="1175036426" x="8748.87" y="3186.03" type="priority"/>
    <node id="1175036446" x="9234.81" y="3164.79" type="priority"/>
    <node id="1175036449" x="8843.76" y="3649.94" type="priority"/>
    <node id="1175036474" x="8883.65" y="3293.49" type="right_before_left"/>
    <node id="1175036495" x="7570.38" y="3359.11" type="priority"/>
    <node id="1175036499" x="7715.03" y="3882.20" type="priority"/>
    <node id="1175036506" x="8820.07" y="3505.86" type="priority"/>
    <node id="1175036530" x="8863.98" y="3459.92" type="priority"/>
    <node id="1175036533" x="7627.73" y="3862.19" type="priority"/>
    <node id="1175036534" x="8995.13" y="3246.79" type="right_before_left"/>
    <node id="1175036540" x="8414.81" y="3423.36" type="priority"/>
    <node id="1175036559" x="7711.27" y="3598.00" type="priority"/>
    <node id="1175036576" x="7592.17" y="3704.22" type="priority"/>
    <node id="1175036598" x="7771.18" y="3827.31" type="priority"/>
    <node id="1175036601" x="7510.53" y="3144.02" type="priority"/>
    <node id="1175036605" x="9026.84" y="3505.25" type="priority"/>
    <node id="1175036620" x="8877.93" y="3307.79" type="priority"/>
    <node id="1175036670" x="7023.13" y="3382.25" type="priority"/>
    <node id="1175036695" x="9194.42" y="3191.43" type="priority"/>
    <node id="1175036697" x="6951.44" y="3685.21" type="right_before_left"/>
    <node id="1175036700" x="9298.85" y="3204.45" type="priority"/>
    <node id="1175036721" x="7302.04" y="3899.32" type="priority"/>
    <node id="1175036723" x="9199.77" y="3229.75" type="priority"/>
    <node id="1175036725" x="8655.28" y="3404.29" type="priority"/>
    <node id="1175036732" x="9153.02" y="3220.41" type="priority"/>
    <node id="1175036734" x="7505.76" y="3811.59" type="priority"/>
    <node id="1175036761" x="7615.00" y="3912.70" type="priority"/>
    <node id="1175036768" x="7150.46" y="3620.79" type="priority"/>
    <node id="1175036802" x="8404.40" y="3714.70" type="priority"/>
    <node id="1175036806" x="7677.44" y="3723.27" type="priority"/>
    <node id="1175036809" x="9146.14" y="3178.57" type="priority"/>
    <node id="1175036813" x="7525.93" y="3758.48" type="priority"/>
    <node id="1175036829" x="7958.17" y="3793.99" type="priority"/>
    <node id="1175036840" x="8460.54" y="3753.42" type="priority"/>
    <node id="1175036850" x="7434.18" y="3527.66" type="priority"/>
    <node id="1175036884" x="9000.93" y="3560.60" type="priority"/>
    <node id="1175036885" x="7183.08" y="3632.15" type="priority"/>
    <node id="1175036909" x="8062.85" y="3463.23" type="priority"/>
    <node id="1175036914" x="7527.76" y="3645.40" type="priority"/>
    <node id="1175036917" x="9214.40" y="3157.37" type="priority"/>
    <node id="1175036939" x="7406.35" y="3855.69" type="priority"/>
    <node id="1175036950" x="8595.01" y="3805.95" type="priority"/>
    <node id="1175036987" x="7850.63" y="3411.42" type="priority"/>
    <node id="1175036990" x="7276.33" y="3500.56" type="priority"/>
    <node id="1175037039" x="7284.91" y="3662.14" type="priority"/>
    <node id="1175037050" x="7966.13" y="3790.49" type="priority"/>
    <node id="1175037054" x="7650.94" y="4106.75" type="priority"/>
    <node id="1175037080" x="8998.46" y="3283.27" type="priority"/>
    <node id="1175037086" x="8005.16" y="3479.66" type="priority"/>
    <node id="1175037156" x="9373.92" y="3467.22" type="priority"/>
    <node id="1175037160" x="6744.43" y="3493.46" type="priority"/>
    <node id="1175037168" x="8574.45" y="3782.17" type="priority"/>
    <node id="1175037174" x="7579.47" y="3698.88" type="priority"/>
    <node id="1175037193" x="9015.53" y="3468.84" type="priority"/>
    <node id="1175037197" x="9119.80" y="3215.14" type="right_before_left"/>
    <node id="1175037205" x="7601.01" y="3473.21" type="priority"/>
    <node id="1175037207" x="8604.78" y="3335.26" type="priority"/>
    <node id="1175037232" x="8461.89" y="3726.94" type="priority"/>
    <node id="1175037236" x="9051.23" y="3245.44" type="priority"/>
    <node id="1175037240" x="8450.61" y="3642.92" type="priority"/>
    <node id="1175037241" x="7238.54" y="3394.85" type="priority"/>
    <node id="1175037312" x="7504.00" y="3763.84" type="priority"/>
    <node id="1175037335" x="7394.20" y="3864.16" type="priority"/>
    <node id="1175037369" x="7946.89" y="3785.75" type="priority"/>
    <node id="1175037374" x="7801.87" y="3819.62" type="priority"/>
    <node id="1175037424" x="8672.12" y="3540.60" type="priority"/>
    <node id="1175037427" x="9057.86" y="3245.57" type="right_before_left"/>
    <node id="1175037431" x="7914.40" y="3628.15" type="priority"/>
    <node id="1175037475" x="8607.47" y="3613.75" type="priority"/>
    <node id="1175037479" x="7442.11" y="3418.99" type="priority"/>
    <node id="1175037487" x="8497.98" y="3400.73" type="priority"/>
    <node id="1175037491" x="7848.85" y="3808.17" type="priority"/>
    <node id="1175037521" x="7599.50" y="3741.66" type="priority"/>
    <node id="1175037527" x="8984.87" y="3152.21" type="priority"/>
    <node id="1175037582" x="7320.27" y="3904.49" type="priority"/>
    <node id="1175037585" x="9084.53" y="3413.41" type="priority"/>
    <node id="1175037588" x="7180.89" y="3611.08" type="priority"/>
    <node id="1175037593" x="6872.53" y="3797.65" type="priority"/>
    <node id="1175037604" x="8754.88" y="3731.56" type="priority"/>
    <node id="1175037649" x="9194.93" y="3170.98" type="priority"/>
    <node id="1175037655" x="7727.63" y="3648.00" type="priority"/>
    <node id="1175037690" x="8515.32" y="3397.68" type="priority"/>
    <node id="1175037722" x="7982.13" y="3805.20" type="priority"/>
    <node id="1175037725" x="7120.48" y="3795.23" type="priority"/>
    <node id="1175037777" x="9104.14" y="3254.77" type="right_before_left"/>
    <node id="1175037780" x="8625.09" y="3629.17" type="priority"/>
    <node id="1175037804" x="8949.94" y="3355.08" type="priority"/>
    <node id="1175037805" x="7640.05" y="3621.05" type="priority"/>
    <node id="1175037811" x="7118.12" y="3337.52" type="priority"/>
    <node id="1175037830" x="9114.86" y="3293.21" type="priority"/>
    <node id="1175037833" x="7968.83" y="3779.30" type="priority"/>
    <node id="1175037834" x="7233.13" y="3880.31" type="priority"/>
    <node id="1175037852" x="9200.36" y="3199.80" type="priority"/>
    <node id="1175037864" x="7428.44" y="3616.18" type="priority"/>
    <node id="1175037866" x="8598.67" y="3403.69" type="priority"/>
    <node id="1175037869" x="8934.22" y="3266.38" type="right_before_left"/>
    <node id="1175037892" x="8975.02" y="3364.98" type="priority"/>
    <node id="1175037928" x="8923.03" y="3285.08" type="right_before_left"/>
    <node id="1175037936" x="7760.97" y="3639.92" type="priority"/>
    <node id="1175037939" x="7643.46" y="3858.06" type="priority"/>
    <node id="1175037945" x="7725.38" y="3432.33" type="priority"/>
    <node id="1175037975" x="8616.31" y="3833.49" type="priority"/>
    <node id="1175037982" x="8128.96" y="3716.20" type="priority"/>
    <node id="1175038004" x="8597.79" y="3520.22" type="priority"/>
    <node id="1175038013" x="8901.00" y="3248.01" type="priority"/>
    <node id="1175038014" x="7524.27" y="3269.09" type="priority"/>
    <node id="1175038016" x="8673.46" y="3224.48" type="priority"/>
    <node id="1175038040" x="7951.20" y="3773.34" type="priority"/>
    <node id="1175038049" x="7926.71" y="3789.80" type="priority"/>
    <node id="1175038055" x="7700.34" y="3710.10" type="priority"/>
    <node id="1175038064" x="8802.04" y="3284.40" type="priority"/>
    <node id="1175038078" x="6665.49" y="3830.13" type="priority"/>
    <node id="1175038088" x="7186.09" y="3800.55" type="priority"/>
    <node id="1175038097" x="8927.04" y="3586.70" type="priority"/>
    <node id="1175038100" x="9050.97" y="3203.88" type="priority"/>
    <node id="1175038125" x="7591.55" y="3743.64" type="priority"/>
    <node id="1175038127" x="9005.03" y="3245.59" type="right_before_left"/>
    <node id="1175038161" x="8985.59" y="3339.29" type="priority"/>
    <node id="1175038173" x="7426.33" y="3632.34" type="priority"/>
    <node id="1175038179" x="8538.48" y="3335.96" type="priority"/>
    <node id="1175038209" x="8919.62" y="3292.68" type="right_before_left"/>
    <node id="1175038216" x="8537.57" y="3741.02" type="priority"/>
    <node id="1175038231" x="8589.72" y="3422.99" type="priority"/>
    <node id="1175038237" x="9096.91" y="3212.27" type="priority"/>
    <node id="1175038246" x="7417.25" y="3696.17" type="priority"/>
    <node id="1175038279" x="6739.16" y="3750.30" type="priority"/>
    <node id="1175038298" x="7406.76" y="3766.15" type="priority"/>
    <node id="1175038304" x="8528.00" y="3949.97" type="priority"/>
    <node id="1175038307" x="8585.23" y="3652.08" type="priority"/>
    <node id="1175038328" x="7584.19" y="3745.29" type="priority"/>
    <node id="1175038334" x="9735.07" y="3938.66" type="priority"/>
    <node id="1175038337" x="8939.54" y="3329.75" type="priority"/>
    <node id="1175038338" x="7380.69" y="3973.67" type="priority"/>
    <node id="1175038344" x="8971.62" y="3544.77" type="priority"/>
    <node id="1175038362" x="8767.39" y="3140.23" type="priority"/>
    <node id="1175038363" x="7058.70" y="3914.41" type="priority"/>
    <node id="1175038369" x="8449.18" y="3659.54" type="priority"/>
    <node id="1175038379" x="8990.87" y="3512.34" type="priority"/>
    <node id="1175038380" x="7666.76" y="3312.46" type="priority"/>
    <node id="1175038388" x="11670.03" y="1962.87" type="priority"/>
    <node id="1175038391" x="7386.24" y="3852.16" type="priority"/>
    <node id="1175038404" x="7376.94" y="3292.01" type="priority"/>
    <node id="1175038405" x="7705.80" y="3842.74" type="priority"/>
    <node id="1175038419" x="7163.48" y="3615.55" type="priority"/>
    <node id="1175038424" x="7959.22" y="3771.27" type="priority"/>
    <node id="1175038435" x="9055.24" y="3213.40" type="priority"/>
    <node id="1175038436" x="9220.45" y="3206.06" type="priority"/>
    <node id="1175038440" x="8710.04" y="3402.36" type="priority"/>
    <node id="1175038461" x="9219.76" y="3376.68" type="priority"/>
    <node id="1175038464" x="8421.16" y="3609.08" type="priority"/>
    <node id="1175038465" x="8773.83" y="3749.39" type="priority"/>
    <node id="1175038468" x="8676.85" y="3785.64" type="priority"/>
    <node id="1175038478" x="7604.92" y="3868.05" type="priority"/>
    <node id="1175038480" x="7146.29" y="3703.39" type="priority"/>
    <node id="1175038482" x="9139.20" y="3441.93" type="priority"/>
    <node id="1175038483" x="7763.09" y="3794.63" type="priority"/>
    <node id="1175038485" x="9002.20" y="3491.01" type="priority"/>
    <node id="1175038487" x="8887.48" y="3283.89" type="priority"/>
    <node id="1175038489" x="7852.97" y="3247.22" type="priority"/>
    <node id="1175038491" x="7165.84" y="3643.58" type="priority"/>
    <node id="1175038514" x="7499.22" y="3506.81" type="priority"/>
    <node id="1175038523" x="9241.63" y="3180.98" type="priority"/>
    <node id="1175038525" x="9743.44" y="3892.45" type="priority"/>
    <node id="1175038548" x="7781.21" y="3605.33" type="priority"/>
    <node id="1175038555" x="7619.17" y="3233.38" type="priority"/>
    <node id="1175038559" x="9300.15" y="3578.15" type="priority"/>
    <node id="1175038561" x="8651.77" y="3126.35" type="priority"/>
    <node id="1175038593" x="8759.23" y="3346.52" type="priority"/>
    <node id="1175038598" x="8853.61" y="3519.78" type="right_before_left"/>
    <node id="1175038626" x="8409.19" y="3388.14" type="priority"/>
    <node id="1175038641" x="8757.36" y="3729.14" type="priority"/>
    <node id="1175038642" x="8521.07" y="3896.68" type="priority"/>
    <node id="1175038644" x="7782.50" y="3875.79" type="priority"/>
    <node id="1175038646" x="7311.71" y="3902.06" type="priority"/>
    <node id="1175038650" x="7688.53" y="4179.32" type="priority"/>
    <node id="1175038665" x="8462.87" y="2721.45" type="priority"/>
    <node id="1175038667" x="7603.94" y="3740.57" type="priority"/>
    <node id="1175038679" x="8537.48" y="3393.81" type="priority"/>
    <node id="1175038680" x="7133.64" y="3570.94" type="priority"/>
    <node id="1175038688" x="6836.15" y="3882.50" type="priority"/>
    <node id="1175053809" x="8439.89" y="2930.61" type="priority"/>
    <node id="1175053829" x="8286.67" y="3096.03" type="priority"/>
    <node id="1175053830" x="9398.56" y="3036.06" type="priority"/>
    <node id="1175053860" x="8517.95" y="2776.60" type="priority"/>
    <node id="1175053862" x="8089.90" y="2805.81" type="priority"/>
    <node id="1175053879" x="8281.48" y="2985.21" type="priority"/>
    <node id="1175053887" x="8119.18" y="3086.61" type="priority"/>
    <node id="1175053889" x="8342.06" y="3205.27" type="priority"/>
    <node id="1175053917" x="8007.37" y="3139.72" type="priority"/>
    <node id="1175053939" x="9600.99" y="2637.15" type="priority"/>
    <node id="1175053942" x="8453.11" y="3224.36" type="priority"/>
    <node id="1175053954" x="8218.10" y="3017.04" type="priority"/>
    <node id="1175053966" x="8014.59" y="2962.62" type="priority"/>
    <node id="1175053973" x="8393.22" y="2946.51" type="priority"/>
    <node id="1175053978" x="8178.54" y="2966.72" type="priority"/>
    <node id="1175053979" x="8249.38" y="3291.05" type="priority"/>
    <node id="1175054011" x="9227.90" y="2758.89" type="priority"/>
    <node id="1175054057" x="7948.12" y="3077.07" type="priority"/>
    <node id="1175054063" x="8425.43" y="3307.35" type="priority"/>
    <node id="1175054065" x="8509.87" y="3266.32" type="priority"/>
    <node id="1175054080" x="8105.36" y="2903.48" type="priority"/>
    <node id="1175054082" x="7758.93" y="2965.14" type="priority"/>
    <node id="1175054088" x="8369.56" y="3218.45" type="priority"/>
    <node id="1175054123" x="7970.49" y="3102.35" type="priority"/>
    <node id="1175054174" x="8407.90" y="3366.68" type="priority"/>
    <node id="1175054188" x="9572.96" y="2637.66" type="rail_crossing"/>
    <node id="1175054219" x="8462.38" y="3103.65" type="priority"/>
    <node id="1175054226" x="8197.54" y="2944.22" type="priority"/>
    <node id="1175054262" x="7993.14" y="2998.05" type="priority"/>
    <node id="1175054279" x="8136.62" y="3188.41" type="priority"/>
    <node id="1175054284" x="8304.31" y="2974.55" type="priority"/>
    <node id="1175054304" x="8455.43" y="3220.35" type="priority"/>
    <node id="1175185413" x="7636.60" y="2976.47" type="priority"/>
    <node id="1175185448" x="11274.32" y="5149.50" type="priority"/>
    <node id="1175185467" x="7804.13" y="3111.52" type="priority"/>
    <node id="1175185482" x="10340.70" y="3078.64" type="priority"/>
    <node id="1175185496" x="11052.78" y="5420.64" type="priority"/>
    <node id="1175185500" x="7781.70" y="3272.10" type="priority"/>
    <node id="1175185504" x="10018.77" y="3573.61" type="priority"/>
    <node id="1175185507" x="7987.18" y="3177.50" type="priority"/>
    <node id="1175185510" x="9835.72" y="3841.10" type="priority"/>
    <node id="1175185522" x="8046.06" y="3157.36" type="priority"/>
    <node id="1175185555" x="7919.72" y="3206.99" type="priority"/>
    <node id="1175185592" x="7489.37" y="3097.95" type="priority"/>
    <node id="1175185595" x="7615.80" y="2985.81" type="priority"/>
    <node id="1175185655" x="8807.89" y="2848.91" type="priority"/>
    <node id="1175185656" x="7722.94" y="2981.96" type="priority"/>
    <node id="1175185687" x="10050.99" y="3642.47" type="priority"/>
    <node id="1175185695" x="7573.40" y="3157.30" type="priority"/>
    <node id="1175185741" x="7501.95" y="3084.83" type="priority"/>
    <node id="1175185751" x="7752.84" y="3174.96" type="priority"/>
    <node id="1175185753" x="10124.78" y="3305.98" type="priority"/>
    <node id="1175185755" x="7785.91" y="2985.21" type="priority"/>
    <node id="1175185766" x="8053.98" y="3235.36" type="priority"/>
    <node id="1175185769" x="7638.43" y="2999.47" type="right_before_left"/>
    <node id="1175185773" x="10186.87" y="4413.23" type="priority"/>
    <node id="1175185777" x="7793.99" y="3077.97" type="priority"/>
    <node id="1175185785" x="10210.36" y="3065.41" type="priority"/>
    <node id="1175185787" x="9003.48" y="2660.14" type="priority"/>
    <node id="1175185790" x="7482.98" y="2790.77" type="priority"/>
    <node id="1175185797" x="9791.47" y="3805.76" type="priority"/>
    <node id="1175185817" x="7487.84" y="3087.81" type="right_before_left"/>
    <node id="1175185842" x="7692.36" y="2681.65" type="priority"/>
    <node id="1175185860" x="7618.47" y="2998.21" type="right_before_left"/>
    <node id="1175185874" x="7615.79" y="2991.98" type="right_before_left"/>
    <node id="1175185875" x="7639.51" y="2982.88" type="priority"/>
    <node id="1175185902" x="8655.61" y="3126.85" type="priority"/>
    <node id="1175185933" x="7971.09" y="3193.59" type="priority"/>
    <node id="1175185945" x="8701.98" y="2950.11" type="priority"/>
    <node id="1175185948" x="8025.73" y="3149.09" type="priority"/>
    <node id="1175185950" x="7553.21" y="3122.58" type="priority"/>
    <node id="1175185969" x="7997.43" y="3171.44" type="priority"/>
    <node id="1175185979" x="10003.97" y="2384.25" type="priority"/>
    <node id="1175185982" x="7731.88" y="3108.39" type="priority"/>
    <node id="1175185988" x="9991.34" y="3613.22" type="priority"/>
    <node id="1175207063" x="7330.25" y="2997.69" type="priority"/>
    <node id="1175207065" x="7076.95" y="3162.84" type="priority"/>
    <node id="1175207069" x="7315.93" y="2998.27" type="priority"/>
    <node id="1175207121" x="7458.89" y="2755.37" type="priority"/>
    <node id="1175207171" x="7308.19" y="3152.35" type="priority"/>
    <node id="1175207181" x="7323.54" y="2882.93" type="priority"/>