<edges xmlns:xsi="http://www.w3.org/2001/XMLSchema-instance" version="1.20" xsi:noNamespaceSchemaLocation="http://sumo.dlr.de/xsd/edges_file.xsd">
    <location netOffset="-474678.15,-5395454.98" convBoundary="0.00,0.00,14846.64,9168.75" origBoundary="2.655220,48.711970,2.857499,48.794092" projParameter="+proj=utm +zone=31 +ellps=WGS84 +datum=WGS84 +units=m +no_defs" />

    <edge id="-101189389#0" from="2074632438" to="1168300720" priority="3" type="highway.residential" numLanes="1" speed="13.89" shape="8516.16,5489.89 8515.79,5498.12 8516.33,5505.25 8517.57,5510.86 8526.46,5539.53 8581.10,5680.50 8590.18,5714.87 8600.26,5745.90" disallow="tram rail_urban rail rail_electric rail_fast ship container cable_car subway aircraft wheelchair scooter drone" />
    <edge id="-101189389#1" from="1168300754" to="2074632438" priority="3" type="highway.residential" numLanes="1" speed="13.89" shape="8557.01,5329.54 8522.87,5459.49 8517.31,5483.91 8516.16,5489.89" disallow="tram rail_urban rail rail_electric rail_fast ship container cable_car subway aircraft wheelchair scooter drone" />
    <edge id="-101191518#0" from="1168307346" to="1168307397" priority="3" type="highway.residential" numLanes="1" speed="13.89" shape="8652.47,5325.25 8611.86,5320.68 8603.54,5319.78 8578.68,5322.90 8552.83,5319.92" disallow="tram rail_urban rail rail_electric rail_fast ship container cable_car subway aircraft wheelchair scooter drone" />
    <edge id="-101191518#1" from="1168307354" to="1168307346" priority="3" type="highway.residential" numLanes="1" speed="13.89" shape="8745.80,5559.95 8711.47,5519.77 8700.12,5492.66 8692.88,5464.70 8695.56,5440.01 8720.32,5348.34 8720.56,5337.91 8716.42,5332.45 8652.47,5325.25" disallow="tram rail_urban rail rail_electric rail_fast ship container cable_car subway aircraft wheelchair scooter drone" />
    <edge id="-101191522#0" from="8696291562" to="2074632438" priority="4" type="highway.unclassified" numLanes="1" speed="13.89" shape="8544.88,5322.19 8542.01,5322.76 8537.10,5323.38 8522.57,5323.69 8492.32,5322.71 8468.93,5322.55 8464.42,5322.47 8458.46,5323.21 8455.74,5324.57 8453.94,5326.36 8452.37,5330.13 8451.70,5334.16 8451.90,5338.38 8452.72,5344.57 8455.31,5353.68 8461.47,5371.38 8463.96,5377.73 8466.93,5384.53 8474.18,5400.62 8476.86,5408.65 8479.74,5416.72 8485.60,5431.03 8491.06,5443.30 8497.61,5458.51 8503.37,5472.16 8507.24,5480.59 8510.60,5485.42 8516.16,5489.89" disallow="tram rail_urban rail rail_electric rail_fast ship container cable_car subway aircraft wheelchair scooter drone" />
    <edge id="-101191522#1" from="1168307397" to="8696291562" priority="4" type="highway.unclassified" numLanes="1" speed="13.89" disallow="tram rail_urban rail rail_electric rail_fast ship container cable_car subway aircraft wheelchair scooter drone" />
    <edge id="-101191524" from="1168307346" to="1168307384" priority="3" type="highway.residential" numLanes="1" speed="13.89" disallow="tram rail_urban rail rail_electric rail_fast ship container cable_car subway aircraft wheelchair scooter drone" />
    <edge id="-101191527#0" from="1168307354" to="905945093" priority="3" type="highway.residential" numLanes="1" speed="13.89" shape="8745.80,5559.95 8717.42,5577.89 8697.62,5591.85" disallow="tram rail_urban rail rail_electric rail_fast ship container cable_car subway aircraft wheelchair scooter drone" />
    <edge id="-101191527#1" from="1168307334" to="1168307354" priority="3" type="highway.residential" numLanes="1" speed="13.89" shape="8803.74,5498.47 8771.29,5542.69 8749.13,5557.77 8745.80,5559.95" disallow="tram rail_urban rail rail_electric rail_fast ship container cable_car subway aircraft wheelchair scooter drone" />
    <edge id="-101789023#0" from="1175185448" to="884526225" priority="4" type="highway.unclassified" numLanes="1" speed="13.89" shape="11274.32,5149.50 11328.75,5206.99 11367.27,5232.39 11476.76,5288.19 11531.31,5315.70 11703.17,5411.85 11748.50,5426.92 11854.48,5488.38 11978.25,5562.25 12114.35,5651.09 12198.82,5701.32 12219.78,5711.23 12251.05,5714.08" disallow="tram rail_urban rail rail_electric rail_fast ship container cable_car subway aircraft wheelchair scooter drone">
        <param key="ref" value="C 7" />
    </edge>
    <edge id="-101789023#1" from="11478387760" to="1175185448" priority="4" type="highway.unclassified" numLanes="1" speed="13.89" shape="11253.70,5104.78 11263.15,5132.98 11274.32,5149.50" disallow="tram rail_urban rail rail_electric rail_fast ship container cable_car subway aircraft wheelchair scooter drone">
        <param key="ref" value="C 7" />
    </edge>
    <edge id="-101789023#2" from="11478401074" to="11478387760" priority="4" type="highway.unclassified" numLanes="1" speed="13.89" shape="11219.79,5037.63 11234.44,5053.41 11244.46,5077.14 11253.70,5104.78" disallow="tram rail_urban rail rail_electric rail_fast ship container cable_car subway aircraft wheelchair scooter drone">
        <param key="ref" value="C 7" />
    </edge>
    <edge id="-101789023#3" from="11478387766" to="11478401074" priority="4" type="highway.unclassified" numLanes="1" speed="13.89" shape="11194.43,5010.73 11197.82,5013.99 11219.79,5037.63" disallow="tram rail_urban rail rail_electric rail_fast ship container cable_car subway aircraft wheelchair scooter drone">
        <param key="ref" value="C 7" />
    </edge>
    <edge id="-101789023#4" from="3190051897" to="11478387766" priority="4" type="highway.unclassified" numLanes="1" speed="13.89" disallow="tram rail_urban rail rail_electric rail_fast ship container cable_car subway aircraft wheelchair scooter drone">
        <param key="ref" value="C 7" />
    </edge>
    <edge id="-101789023#5" from="3190051891" to="3190051897" priority="4" type="highway.unclassified" numLanes="1" speed="13.89" shape="11055.04,4910.20 11098.61,4928.38 11119.92,4941.56 11147.33,4965.44 11170.57,4987.79" disallow="tram rail_urban rail rail_electric rail_fast ship container cable_car subway aircraft wheelchair scooter drone">
        <param key="ref" value="C 7" />
    </edge>
    <edge id="-101789025#0" from="1175037039" to="1175036885" priority="3" type="highway.residential" numLanes="1" speed="13.89" disallow="tram rail_urban rail rail_electric rail_fast ship container cable_car subway aircraft wheelchair scooter drone" />
    <edge id="-101789025#1" from="1175038246" to="1175037039" priority="3" type="highway.residential" numLanes="1" speed="13.89" shape="7417.25,3696.17 7412.46,3695.31 7373.52,3687.00 7284.91,3662.14" disallow="tram rail_urban rail rail_electric rail_fast ship container cable_car subway aircraft wheelchair scooter drone" />
    <edge id="-101789025#2" from="1175036813" to="1175038246" priority="3" type="highway.residential" numLanes="1" speed="13.89" shape="7525.93,3758.48 7491.55,3711.98 7423.00,3697.54 7417.25,3696.17" disallow="tram rail_urban rail rail_electric rail_fast ship container cable_car subway aircraft wheelchair scooter drone" />
    <edge id="-101789026#0" from="8693908952" to="1175037939" priority="3" type="highway.residential" numLanes="1" speed="13.89" shape="7651.72,3901.43 7652.58,3897.32 7643.46,3858.06" disallow="tram rail_urban rail rail_electric rail_fast ship container cable_car subway aircraft wheelchair scooter drone" />
    <edge id="-101789026#1" from="1175036761" to="8693908952" priority="3" type="highway.residential" numLanes="1" speed="13.89" shape="7615.00,3912.70 7643.45,3905.79 7650.08,3903.25 7651.72,3901.43" disallow="tram rail_urban rail rail_electric rail_fast ship container cable_car subway aircraft wheelchair scooter drone" />
    <edge id="-101789028#0" from="8750041928" to="1175038328" priority="3" type="highway.residential" numLanes="1" speed="13.89" shape="7585.65,3705.84 7578.68,3707.58 7576.34,3711.10 7584.19,3745.29" disallow="tram rail_urban rail rail_electric rail_fast ship container cable_car subway aircraft wheelchair scooter drone" />
    <edge id="-101789028#1" from="1175036576" to="8750041928" priority="3" type="highway.residential" numLanes="1" speed="13.89" disallow="tram rail_urban rail rail_electric rail_fast ship container cable_car subway aircraft wheelchair scooter drone" />
    <edge id="-101789028#2" from="1175038667" to="1175036576" priority="3" type="highway.residential" numLanes="1" speed="13.89" shape="7603.94,3740.57 7595.69,3705.97 7592.17,3704.22" disallow="tram rail_urban rail rail_electric rail_fast ship container cable_car subway aircraft wheelchair scooter drone" />
    <edge id="-101789029" from="1175038100" to="1175038435" priority="3" type="highway.residential" numLanes="1" speed="13.89" disallow="tram rail_urban rail rail_electric rail_fast ship container cable_car subway aircraft wheelchair scooter drone" />
    <edge id="-101789030" from="1175036534" to="1175036320" priority="3" type="highway.residential" numLanes="1" speed="8.33" shape="8995.13,3246.79 8996.50,3195.39 8995.77,3184.31 8990.43,3175.13 8976.47,3163.99" disallow="tram rail_urban rail rail_electric rail_fast ship container cable_car subway aircraft wheelchair scooter drone" />
    <edge id="-101789031#0" from="1175036156" to="1175036276" priority="3" type="highway.residential" numLanes="1" speed="13.89" disallow="tram rail_urban rail rail_electric rail_fast ship container cable_car subway aircraft wheelchair scooter drone" />
    <edge id="-101789031#1" from="1175037834" to="1175036156" priority="3" type="highway.residential" numLanes="1" speed="13.89" shape="7233.13,3880.31 7285.77,3894.80 7318.53,3878.15" disallow="tram rail_urban rail rail_electric rail_fast ship container cable_car subway aircraft wheelchair scooter drone" />
    <edge id="-101789031#2" from="1175037725" to="1175037834" priority="3" type="highway.residential" numLanes="1" speed="13.89" shape="7120.48,3795.23 7109.34,3834.91 7110.14,3843.10 7115.64,3848.54 7233.13,3880.31" disallow="tram rail_urban rail rail_electric rail_fast ship container cable_car subway aircraft wheelchair scooter drone" />
    <edge id="-101789031#3" from="1175038480" to="1175037725" priority="3" type="highway.residential" numLanes="1" speed="13.89" disallow="tram rail_urban rail rail_electric rail_fast ship container cable_car subway aircraft wheelchair scooter drone" />
    <edge id="-101789031#4" from="1175038491" to="1175038480" priority="3" type="highway.residential" numLanes="1" speed="13.89" disallow="tram rail_urban rail rail_electric rail_fast ship container cable_car subway aircraft wheelchair scooter drone" />
    <edge id="-101789033" from="1175038641" to="1175036334" priority="3" type="highway.residential" numLanes="1" speed="13.89" shape="8757.36,3729.14 8728.57,3703.39 8714.23,3695.05 8691.56,3673.50 8732.16,3629.76 8740.39,3582.31" disallow="tram rail_urban rail rail_electric rail_fast ship container cable_car subway aircraft wheelchair scooter drone" />
    <edge id="-101789034#0" from="1175036559" to="1175036576" priority="3" type="highway.residential" numLanes="1" speed="13.89" shape="7711.27,3598.00 7700.92,3608.28 7689.43,3621.75 7637.23,3666.63 7592.17,3704.22" disallow="tram rail_urban rail rail_electric rail_fast ship container cable_car subway aircraft wheelchair scooter drone" />
    <edge id="-101789034#1" from="8691432941" to="1175036559" priority="3" type="highway.residential" numLanes="1" speed="13.89" shape="7734.07,3568.71 7731.61,3572.19 7711.27,3598.00" disallow="tram rail_urban rail rail_electric rail_fast ship container cable_car subway aircraft wheelchair scooter drone" />
    <edge id="-101789042#0" from="1175038231" to="1175037866" priority="3" type="highway.residential" numLanes="1" speed="13.89" disallow="tram rail_urban rail rail_electric rail_fast ship container cable_car subway aircraft wheelchair scooter drone" />
    <edge id="-101789042#1" from="8788208706" to="1175038231" priority="3" type="highway.residential" numLanes="1" speed="13.89" shape="8512.15,3428.23 8519.65,3437.38 8569.70,3459.30 8573.59,3457.49 8589.72,3422.99" disallow="tram rail_urban rail rail_electric rail_fast ship container cable_car subway aircraft wheelchair scooter drone" />
    <edge id="-101789042#2" from="1175037487" to="8788208706" priority="3" type="highway.residential" numLanes="1" speed="13.89" shape="8497.98,3400.73 8501.35,3415.07 8512.15,3428.23" disallow="tram rail_urban rail rail_electric rail_fast ship container cable_car subway aircraft wheelchair scooter drone" />
    <edge id="-101789048#0" from="7077862618" to="1175037585" priority="3" type="highway.residential" numLanes="1" speed="13.89" disallow="tram rail_urban rail rail_electric rail_fast ship container cable_car subway aircraft wheelchair scooter drone" />
    <edge id="-101789048#1" from="1175037892" to="7077862618" priority="3" type="highway.residential" numLanes="1" speed="13.89" disallow="tram rail_urban rail rail_electric rail_fast ship container cable_car subway aircraft wheelchair scooter drone" />
    <edge id="-101789048#2" from="1175037804" to="1175037892" priority="3" type="highway.residential" numLanes="1" speed="13.89" disallow="tram rail_urban rail rail_electric rail_fast ship container cable_car subway aircraft wheelchair scooter drone" />
    <edge id="-101789048#3" from="1175038064" to="1175037804" priority="3" type="highway.residential" numLanes="1" speed="13.89" shape="8802.04,3284.40 8902.18,3331.52 8949.94,3355.08" disallow="tram rail_urban rail rail_electric rail_fast ship container cable_car subway aircraft wheelchair scooter drone" />
    <edge id="-101789048#4" from="1175038016" to="1175038064" priority="3" type="highway.residential" numLanes="1" speed="13.89" shape="8673.46,3224.48 8765.98,3267.60 8802.04,3284.40" disallow="tram rail_urban rail rail_electric rail_fast ship container cable_car subway aircraft wheelchair scooter drone" />
    <edge id="-101789048#5" from="1175038561" to="1175038016" priority="3" type="highway.residential" numLanes="1" speed="13.89" shape="8651.77,3126.35 8650.15,3130.33 8623.40,3196.09 8625.82,3202.28 8673.46,3224.48" disallow="tram rail_urban rail rail_electric rail_fast ship container cable_car subway aircraft wheelchair scooter drone" />
    <edge id="-101789049" from="1175037207" to="1175038016" priority="3" type="highway.residential" numLanes="1" speed="13.89" shape="8604.78,3335.26 8627.69,3293.24 8673.46,3224.48" disallow="tram rail_urban rail rail_electric rail_fast ship container cable_car subway aircraft wheelchair scooter drone" />
    <edge id="-101789053#0" from="1175038514" to="7250186929" priority="3" type="highway.residential" numLanes="1" speed="13.89" disallow="tram rail_urban rail rail_electric rail_fast ship container cable_car subway aircraft wheelchair scooter drone" />
    <edge id="-101789053#1" from="8750041929" to="1175038514" priority="3" type="highway.residential" numLanes="1" speed="13.89" shape="7539.76,3642.87 7538.35,3637.49 7529.71,3626.79 7501.42,3514.49 7499.22,3506.81" disallow="tram rail_urban rail rail_electric rail_fast ship container cable_car subway aircraft wheelchair scooter drone" />
    <edge id="-101789053#2" from="1175037174" to="8750041929" priority="3" type="highway.residential" numLanes="1" speed="13.89" shape="7579.47,3698.88 7550.39,3683.58 7539.76,3642.87" disallow="tram rail_urban rail rail_electric rail_fast ship container cable_car subway aircraft wheelchair scooter drone" />
    <edge id="-101789055#0" from="1291649384" to="1175037521" priority="3" type="highway.residential" numLanes="1" speed="13.89" disallow="tram rail_urban rail rail_electric rail_fast ship container cable_car subway aircraft wheelchair scooter drone" />
    <edge id="-101789055#1" from="1175036533" to="1291649384" priority="3" type="highway.residential" numLanes="1" speed="13.89" disallow="tram rail_urban rail rail_electric rail_fast ship container cable_car subway aircraft wheelchair scooter drone" />
    <edge id="-101789057#0" from="8788208705" to="1175036540" priority="3" type="highway.residential" numLanes="1" speed="13.89" shape="8484.75,3475.55 8446.88,3458.06 8434.07,3450.16 8422.73,3436.05 8414.81,3423.36" disallow="tram rail_urban rail rail_electric rail_fast ship container cable_car subway aircraft wheelchair scooter drone" />
    <edge id="-101789057#1" from="1603469263" to="8788208705" priority="3" type="highway.residential" numLanes="1" speed="13.89" shape="8532.35,3497.68 8523.30,3493.36 8484.75,3475.55" disallow="tram rail_urban rail rail_electric rail_fast ship container cable_car subway aircraft wheelchair scooter drone" />
    <edge id="-101789057#2" from="1175038004" to="1603469263" priority="3" type="highway.residential" numLanes="1" speed="13.89" shape="8597.79,3520.22 8575.74,3514.83 8532.35,3497.68" disallow="tram rail_urban rail rail_electric rail_fast ship container cable_car subway aircraft wheelchair scooter drone" />
    <edge id="-101789057#3" from="1175037424" to="1175038004" priority="3" type="highway.residential" numLanes="1" speed="13.89" shape="8672.12,3540.60 8659.83,3534.57 8647.15,3530.22 8597.79,3520.22" disallow="tram rail_urban rail rail_electric rail_fast ship container cable_car subway aircraft wheelchair scooter drone" />
    <edge id="-101789057#4" from="8750041960" to="1175037424" priority="3" type="highway.residential" numLanes="1" speed="13.89" disallow="tram rail_urban rail rail_electric rail_fast ship container cable_car subway aircraft wheelchair scooter drone" />
    <edge id="-101789057#5" from="1175036334" to="8750041960" priority="3" type="highway.residential" numLanes="1" speed="13.89" disallow="tram rail_urban rail rail_electric rail_fast ship container cable_car subway aircraft wheelchair scooter drone" />
    <edge id="-101789057#6" from="1175036449" to="1175036334" priority="3" type="highway.residential" numLanes="1" speed="13.89" shape="8843.76,3649.94 8837.28,3645.71 8740.39,3582.31" disallow="tram rail_urban rail rail_electric rail_fast ship container cable_car subway aircraft wheelchair scooter drone" />
    <edge id="-101789058#0" from="685833458" to="8738478946" priority="10" type="highway.tertiary" numLanes="1" speed="13.89" shape="7858.65,3159.29 7859.42,3145.46 7869.79,3059.37 7870.05,3055.60" disallow="tram rail_urban rail rail_electric rail_fast ship container cable_car subway aircraft wheelchair scooter drone">
        <param key="ref" value="D 10" />
    </edge>
    <edge id="-101789058#1" from="6078409186" to="685833458" priority="10" type="highway.tertiary" numLanes="1" speed="13.89" shape="7855.04,3216.50 7855.85,3203.43 7858.65,3159.29" disallow="tram rail_urban rail rail_electric rail_fast ship container cable_car subway aircraft wheelchair scooter drone">
        <param key="ref" value="D 10" />
    </edge>
    <edge id="-101789058#2" from="1175038489" to="6078409186" priority="10" type="highway.tertiary" numLanes="1" speed="13.89" disallow="tram rail_urban rail rail_electric rail_fast ship container cable_car subway aircraft wheelchair scooter drone">
        <param key="ref" value="D 10" />
    </edge>
    <edge id="-101789058#3" from="685833493" to="1175038489" priority="10" type="highway.tertiary" numLanes="1" speed="13.89" shape="7857.71,3292.36 7852.24,3267.75 7852.97,3247.22" disallow="tram rail_urban rail rail_electric rail_fast ship container cable_car subway aircraft wheelchair scooter drone">
        <param key="ref" value="D 10" />
    </edge>
    <edge id="-101789058#4" from="685833511" to="685833493" priority="10" type="highway.tertiary" numLanes="1" speed="13.89" shape="7856.54,3389.06 7857.98,3382.23 7859.85,3364.45 7862.39,3338.18 7863.25,3326.64 7862.51,3314.64 7857.71,3292.36" disallow="tram rail_urban rail rail_electric rail_fast ship container cable_car subway aircraft wheelchair scooter drone">
        <param key="ref" value="D 10" />
    </edge>
    <edge id="-101789062#0" from="1175037655" to="1175036559" priority="3" type="highway.residential" numLanes="1" speed="13.89" shape="7727.63,3648.00 7717.91,3607.28 7711.27,3598.00" disallow="tram rail_urban rail rail_electric rail_fast ship container cable_car subway aircraft wheelchair scooter drone" />
    <edge id="-101789062#1" from="1175038483" to="1175037655" priority="3" type="highway.residential" numLanes="1" speed="13.89" disallow="tram rail_urban rail rail_electric rail_fast ship container cable_car subway aircraft wheelchair scooter drone" />
    <edge id="-101789063#0" from="1175037475" to="1175037424" priority="3" type="highway.residential" numLanes="1" speed="13.89" disallow="tram rail_urban rail rail_electric rail_fast ship container cable_car subway aircraft wheelchair scooter drone" />
    <edge id="-101789063#1" from="1175038307" to="1175037475" priority="3" type="highway.residential" numLanes="1" speed="13.89" shape="8585.23,3652.08 8585.84,3639.50 8607.47,3613.75" disallow="tram rail_urban rail rail_electric rail_fast ship container cable_car subway aircraft wheelchair scooter drone" />
    <edge id="-101789063#2" from="4665656769" to="1175038307" priority="3" type="highway.residential" numLanes="1" speed="13.89" shape="8538.72,3674.57 8550.22,3675.37 8562.56,3672.58 8573.18,3665.61 8585.23,3652.08" disallow="tram rail_urban rail rail_electric rail_fast ship container cable_car subway aircraft wheelchair scooter drone" />
    <edge id="-101789063#3" from="1175036410" to="4665656769" priority="3" type="highway.residential" numLanes="1" speed="13.89" shape="8519.85,3665.77 8524.98,3670.20 8535.64,3674.36 8538.72,3674.57" disallow="tram rail_urban rail rail_electric rail_fast ship container cable_car subway aircraft wheelchair scooter drone" />
    <edge id="-101789063#4" from="1175036246" to="1175036410" priority="3" type="highway.residential" numLanes="1" speed="13.89" shape="8505.70,3639.88 8507.44,3646.81 8512.07,3657.93 8519.85,3665.77" disallow="tram rail_urban rail rail_electric rail_fast ship container cable_car subway aircraft wheelchair scooter drone" />
    <edge id="-101789063#5" from="4665656767" to="1175036246" priority="3" type="highway.residential" numLanes="1" speed="13.89" shape="8523.33,3599.03 8513.23,3609.72 8508.27,3619.83 8506.19,3629.13 8505.70,3639.88" disallow="tram rail_urban rail rail_electric rail_fast ship container cable_car subway aircraft wheelchair scooter drone" />
    <edge id="-101789063#6" from="1175038004" to="4665656767" priority="3" type="highway.residential" numLanes="1" speed="13.89" shape="8597.79,3520.22 8554.49,3569.51 8543.61,3575.57 8523.33,3599.03" disallow="tram rail_urban rail rail_electric rail_fast ship container cable_car subway aircraft wheelchair scooter drone" />
    <edge id="-101789066#0" from="3778724954" to="1175036181" priority="3" type="highway.residential" numLanes="1" speed="13.89" shape="8942.38,3406.54 8945.51,3415.83 8944.61,3421.65" disallow="tram rail_urban rail rail_electric rail_fast ship container cable_car subway aircraft wheelchair scooter drone" />
    <edge id="-101789066#1" from="1175037804" to="3778724954" priority="3" type="highway.residential" numLanes="1" speed="13.89" shape="8949.94,3355.08 8948.12,3360.30 8942.38,3406.54" disallow="tram rail_urban rail rail_electric rail_fast ship container cable_car subway aircraft wheelchair scooter drone" />
    <edge id="-101789067#0" from="7077860476" to="7077860463" priority="11" type="highway.secondary" numLanes="1" speed="27.78" shape="10241.86,3319.67 10317.47,3325.59 10390.65,3326.36 10488.42,3325.14 10601.10,3325.49 10644.45,3328.75 10684.31,3332.37 10708.14,3334.79 10744.41,3339.71 10781.50,3345.36 10840.88,3356.80 10908.47,3373.64 11050.06,3411.16 11130.72,3427.10 11213.46,3439.37" disallow="tram rail_urban rail rail_electric rail_fast ship container cable_car subway aircraft wheelchair scooter drone">
        <param key="ref" value="D 216" />
    </edge>
    <edge id="-101789067#1" from="1175185753" to="7077860476" priority="11" type="highway.secondary" numLanes="1" speed="27.78" shape="10124.78,3305.98 10175.56,3312.99 10225.82,3318.41 10241.86,3319.67" disallow="tram rail_urban rail rail_electric rail_fast ship container cable_car subway aircraft wheelchair scooter drone">
        <param key="ref" value="D 216" />
    </edge>
    <edge id="-101789069#0" from="8418886968" to="8418886972" priority="3" type="highway.residential" numLanes="1" speed="8.33" shape="9124.06,3271.79 9119.54,3273.74 9113.68,3270.23 9112.43,3266.24 9114.63,3258.37" disallow="tram rail_urban rail rail_electric rail_fast ship container cable_car subway aircraft wheelchair scooter drone" />
    <edge id="-101789069#1" from="8418886972" to="8418886968" priority="3" type="highway.residential" numLanes="1" speed="8.33" shape="9114.63,3258.37 9127.14,3262.64 9124.06,3271.79" disallow="tram rail_urban rail rail_electric rail_fast ship container cable_car subway aircraft wheelchair scooter drone" />
    <edge id="-101789069#10" from="8418886967" to="1175038209" priority="3" type="highway.residential" numLanes="1" speed="8.33" disallow="tram rail_urban rail rail_electric rail_fast ship container cable_car subway aircraft wheelchair scooter drone" />
    <edge id="-101789069#2" from="1175037777" to="8418886972" priority="3" type="highway.residential" numLanes="1" speed="8.33" disallow="tram rail_urban rail rail_electric rail_fast ship container cable_car subway aircraft wheelchair scooter drone" />
    <edge id="-101789069#3" from="1175037427" to="1175037777" priority="3" type="highway.residential" numLanes="1" speed="8.33" shape="9057.86,3245.57 9078.43,3245.97 9104.14,3254.77" disallow="tram rail_urban rail rail_electric rail_fast ship container cable_car subway aircraft wheelchair scooter drone" />
    <edge id="-101789069#4" from="1175037236" to="1175037427" priority="3" type="highway.residential" numLanes="1" speed="8.33" disallow="tram rail_urban rail rail_electric rail_fast ship container cable_car subway aircraft wheelchair scooter drone" />
    <edge id="-101789069#5" from="1175038127" to="1175037236" priority="3" type="highway.residential" numLanes="1" speed="8.33" shape="9005.03,3245.59 9012.40,3244.69 9051.23,3245.44" disallow="tram rail_urban rail rail_electric rail_fast ship container cable_car subway aircraft wheelchair scooter drone" />
    <edge id="-101789069#6" from="1175036534" to="1175038127" priority="3" type="highway.residential" numLanes="1" speed="8.33" disallow="tram rail_urban rail rail_electric rail_fast ship container cable_car subway aircraft wheelchair scooter drone" />
    <edge id="-101789069#7" from="1175037869" to="1175036534" priority="3" type="highway.residential" numLanes="1" speed="8.33" shape="8934.22,3266.38 8944.46,3260.01 8995.13,3246.79" disallow="tram rail_urban rail rail_electric rail_fast ship container cable_car subway aircraft wheelchair scooter drone" />
    <edge id="-101789069#8" from="1175037928" to="1175037869" priority="3" type="highway.residential" numLanes="1" speed="8.33" shape="8923.03,3285.08 8927.15,3275.91 8934.22,3266.38" disallow="tram rail_urban rail rail_electric rail_fast ship container cable_car subway aircraft wheelchair scooter drone" />
    <edge id="-101789069#9" from="1175038209" to="1175037928" priority="3" type="highway.residential" numLanes="1" speed="8.33" disallow="tram rail_urban rail rail_electric rail_fast ship container cable_car subway aircraft wheelchair scooter drone" />
    <edge id="-101789072" from="1175036530" to="1175038379" priority="3" type="highway.residential" numLanes="1" speed="13.89" shape="8863.98,3459.92 8876.72,3470.72 8906.45,3484.38 8929.44,3485.50 8990.87,3512.34" disallow="tram rail_urban rail rail_electric rail_fast ship container cable_car subway aircraft wheelchair scooter drone" />
    <edge id="-101789074#0" from="8710663125" to="1175037588" priority="3" type="highway.residential" numLanes="1" speed="13.89" disallow="tram rail_urban rail rail_electric rail_fast ship container cable_car subway aircraft wheelchair scooter drone" />
    <edge id="-101789074#1" from="1175036885" to="8710663125" priority="3" type="highway.residential" numLanes="1" speed="13.89" shape="7183.08,3632.15 7183.89,3627.95 7183.97,3623.50 7182.36,3616.68" disallow="tram rail_urban rail rail_electric rail_fast ship container cable_car subway aircraft wheelchair scooter drone" />
    <edge id="-101789074#2" from="1175036424" to="1175036885" priority="3" type="highway.residential" numLanes="1" speed="13.89" shape="7177.39,3641.81 7179.95,3639.18 7181.81,3636.09 7183.08,3632.15" disallow="tram rail_urban rail rail_electric rail_fast ship container cable_car subway aircraft wheelchair scooter drone" />
    <edge id="-101789074#3" from="1175038491" to="1175036424" priority="3" type="highway.residential" numLanes="1" speed="13.89" shape="7165.84,3643.58 7170.30,3644.27 7174.10,3643.35 7177.39,3641.81" disallow="tram rail_urban rail rail_electric rail_fast ship container cable_car subway aircraft wheelchair scooter drone" />
    <edge id="-101789074#4" from="8710663124" to="1175038491" priority="3" type="highway.residential" numLanes="1" speed="13.89" shape="7152.55,3626.63 7155.17,3633.94 7157.01,3637.43 7159.67,3640.41 7162.47,3642.40 7165.84,3643.58" disallow="tram rail_urban rail rail_electric rail_fast ship container cable_car subway aircraft wheelchair scooter drone" />
    <edge id="-101789074#5" from="1175036768" to="8710663124" priority="3" type="highway.residential" numLanes="1" speed="13.89" disallow="tram rail_urban rail rail_electric rail_fast ship container cable_car subway aircraft wheelchair scooter drone" />
    <edge id="-101789075#0" from="1175038405" to="1175036598" priority="3" type="highway.residential" numLanes="1" speed="13.89" shape="7705.80,3842.74 7767.10,3828.21 7771.18,3827.31" disallow="tram rail_urban rail rail_electric rail_fast ship container cable_car subway aircraft wheelchair scooter drone" />