<?xml version="1.0" encoding="UTF-8"?>

<!-- generated on 2025-04-09 00:07:08 by Eclipse SUMO netconvert Version 1.19.0
<configuration xmlns:xsi="http://www.w3.org/2001/XMLSchema-instance" xsi:noNamespaceSchemaLocation="http://sumo.dlr.de/xsd/netconvertConfiguration.xsd">

    <input>
        <sumo-net-file value="nangis/nangis.net.xml"/>
    </input>

    <output>
        <plain-output-prefix value="nangis/nangis"/>
    </output>

    <processing>
        <geometry.min-radius.fix.railways value="false"/>
        <geometry.max-grade.fix value="false"/>
        <offset.disable-normalization value="true"/>
        <lefthand value="0"/>
    </processing>

    <tls_building>
        <tls.ignore-internal-junction-jam value="1"/>
    </tls_building>

    <junctions>
        <no-turnarounds value="true"/>
        <junctions.corner-detail value="5"/>
        <junctions.limit-turn-speed value="5.50"/>
        <rectangular-lane-cut value="0"/>
    </junctions>

    <pedestrian>
        <walkingareas value="0"/>
    </pedestrian>

</configuration>
-->

<nodes version="1.16" xmlns:xsi="http://www.w3.org/2001/XMLSchema-instance" xsi:noNamespaceSchemaLocation="http://sumo.dlr.de/xsd/nodes_file.xsd">
    <location netOffset="-497095.76,-5372756.02" convBoundary="0.00,0.00,7239.82,10691.06" origBoundary="2.505475,48.424568,3.301254,48.649231" projParameter="+proj=utm +zone=31 +ellps=WGS84 +datum=WGS84 +units=m +no_defs"/>

    <node id="10063971858" x="2608.31" y="2928.50" type="priority"/>
    <node id="10092651989" x="4898.03" y="5698.08" type="priority"/>
    <node id="10092651998" x="4346.04" y="5542.11" type="priority"/>
    <node id="10092652003" x="4432.61" y="5532.54" type="priority"/>
    <node id="10315462698" x="1578.79" y="3815.30" type="priority"/>
    <node id="10315462699" x="737.79" y="4848.76" type="priority"/>
    <node id="10315462700" x="718.93" y="4696.61" type="priority"/>
    <node id="10698084690" x="3856.33" y="4934.21" type="dead_end"/>
    <node id="10698084692" x="3973.56" y="4881.02" type="dead_end"/>
    <node id="10698084693" x="3968.54" y="4932.75" type="dead_end"/>
    <node id="10698084697" x="4027.10" y="4903.26" type="dead_end"/>
    <node id="10698084698" x="4022.50" y="4938.57" type="dead_end"/>
    <node id="10796991357" x="4305.36" y="5243.46" type="priority"/>
    <node id="10796991358" x="4304.05" y="5237.31" type="priority"/>
    <node id="10796991359" x="4278.71" y="5254.08" type="priority"/>
    <node id="10797055459" x="4983.30" y="5759.59" type="priority"/>
    <node id="10797055460" x="4828.19" y="5705.18" type="priority"/>
    <node id="10797055461" x="4889.05" y="5709.15" type="priority"/>
    <node id="10797055463" x="4922.00" y="5721.48" type="priority"/>
    <node id="10797055464" x="4899.25" y="5712.83" type="priority"/>
    <node id="10839349120" x="4140.88" y="4737.06" type="priority"/>
    <node id="10839349125" x="4103.22" y="4736.67" type="priority"/>
    <node id="10839349252" x="3430.25" y="5395.83" type="priority"/>
    <node id="10839349259" x="3255.76" y="5357.18" type="priority"/>
    <node id="10839349279" x="3349.94" y="5007.62" type="priority"/>
    <node id="10839349304" x="3524.67" y="5158.29" type="right_before_left"/>
    <node id="10839349305" x="3472.79" y="5144.42" type="priority"/>
    <node id="11286127411" x="4880.57" y="5235.08" type="priority"/>
    <node id="11286178328" x="2976.37" y="6794.41" type="right_before_left"/>
    <node id="11286178329" x="2974.48" y="6769.17" type="right_before_left"/>
    <node id="11286178331" x="2996.54" y="6861.32" type="priority" fringe="inner">
        <param key="buffer_stop" value="true"/>
    </node>
    <node id="11286178340" x="2953.58" y="6749.57" type="priority"/>
    <node id="11286178346" x="3231.62" y="6602.98" type="priority"/>
    <node id="11504266076" x="4058.81" y="4851.62" type="priority"/>
    <node id="11573930090" x="3783.85" y="5593.29" type="priority"/>
    <node id="11755058186" x="4196.09" y="4311.34" type="right_before_left"/>
    <node id="12185761160" x="4269.98" y="4722.75" type="priority"/>
    <node id="12382383808" x="3448.77" y="4679.72" type="right_before_left"/>
    <node id="12382383810" x="3486.55" y="4624.86" type="priority"/>
    <node id="12382402809" x="3719.07" y="4928.24" type="priority"/>
    <node id="12382402811" x="4019.07" y="4884.65" type="right_before_left"/>
    <node id="12382402812" x="4018.32" y="4894.69" type="priority"/>
    <node id="12382414869" x="3754.94" y="5304.43" type="priority"/>
    <node id="12382427431" x="3757.49" y="5151.63" type="priority"/>
    <node id="12382434251" x="3730.26" y="4999.03" type="priority"/>
    <node id="12382457088" x="3775.72" y="4997.31" type="priority"/>
    <node id="12382457089" x="3774.99" y="5004.08" type="priority"/>
    <node id="12382541840" x="3020.02" y="5371.54" type="priority"/>
    <node id="12382541841" x="3196.12" y="5373.06" type="right_before_left"/>
    <node id="12382544239" x="3248.29" y="5319.53" type="right_before_left"/>
    <node id="12382544242" x="3266.20" y="5324.37" type="right_before_left"/>
    <node id="12382544251" x="3257.13" y="5330.78" type="right_before_left"/>
    <node id="12382544261" x="3063.66" y="5267.51" type="priority"/>
    <node id="12382738300" x="3708.30" y="4961.11" type="priority"/>
    <node id="12382788033" x="3642.26" y="5532.74" type="priority"/>
    <node id="12382807905" x="3645.95" y="5481.95" type="priority"/>
    <node id="12382807906" x="3643.00" y="5522.05" type="right_before_left"/>
    <node id="12382807907" x="3651.46" y="5410.98" type="priority"/>
    <node id="12382807909" x="3700.04" y="5488.36" type="priority"/>
    <node id="12382896403" x="3739.71" y="5580.92" type="right_before_left"/>
    <node id="12382896404" x="3784.34" y="5582.73" type="right_before_left"/>
    <node id="12382998842" x="3114.50" y="4891.19" type="priority"/>
    <node id="12383013195" x="3197.67" y="5235.97" type="priority"/>
    <node id="12383013196" x="3203.16" y="5267.86" type="priority"/>
    <node id="12383013197" x="3203.37" y="5235.99" type="right_before_left"/>
    <node id="12383013198" x="3085.77" y="5209.19" type="priority"/>
    <node id="12383013199" x="3085.15" y="5267.35" type="right_before_left"/>
    <node id="12383013200" x="3091.02" y="5267.20" type="priority"/>
    <node id="12383027101" x="3091.90" y="5209.27" type="priority"/>
    <node id="12383031711" x="3124.81" y="4914.34" type="priority"/>
    <node id="12383031712" x="3130.76" y="4915.41" type="priority"/>
    <node id="12383069436" x="4731.98" y="5154.10" type="priority"/>
    <node id="12383094006" x="4788.15" y="5116.93" type="right_before_left"/>
    <node id="12383094007" x="4737.27" y="5307.89" type="priority"/>
    <node id="12383094008" x="4786.17" y="5308.07" type="priority"/>
    <node id="12383094009" x="4775.46" y="5307.89" type="right_before_left"/>
    <node id="12383094013" x="4745.68" y="5307.94" type="right_before_left"/>
    <node id="12383094017" x="4758.83" y="5555.69" type="right_before_left"/>
    <node id="12383094020" x="4763.30" y="5521.54" type="priority"/>
    <node id="12383126635" x="4780.41" y="5603.45" type="rail_crossing"/>
    <node id="12383126636" x="4785.04" y="5606.84" type="rail_crossing"/>
    <node id="12383177319" x="4238.57" y="5102.61" type="priority"/>
    <node id="12383182158" x="4288.70" y="5228.50" type="right_before_left"/>
    <node id="12383182162" x="4298.07" y="5256.67" type="right_before_left"/>
    <node id="12383249769" x="3661.21" y="5135.97" type="dead_end"/>
    <node id="12383249770" x="3608.86" y="5032.89" type="dead_end"/>
    <node id="12383249773" x="3652.24" y="5000.24" type="dead_end"/>
    <node id="12383253637" x="3955.90" y="5179.18" type="priority"/>
    <node id="12383253638" x="4027.82" y="5077.63" type="priority"/>
    <node id="12383253646" x="4010.38" y="5104.35" type="dead_end"/>
    <node id="12383253647" x="4020.42" y="5105.59" type="dead_end"/>
    <node id="12383253648" x="4014.74" y="5098.19" type="dead_end"/>
    <node id="12383282408" x="4270.30" y="4942.02" type="dead_end"/>
    <node id="12383282424" x="4245.56" y="4909.78" type="dead_end"/>
    <node id="12383296734" x="3516.01" y="5459.23" type="priority"/>
    <node id="12383296735" x="3512.32" y="5491.71" type="priority"/>
    <node id="12383333221" x="3251.07" y="5345.86" type="right_before_left"/>
    <node id="12383377442" x="3256.82" y="5346.01" type="right_before_left"/>
    <node id="12383377443" x="3103.46" y="5343.90" type="right_before_left"/>
    <node id="12383377444" x="3086.52" y="5317.95" type="right_before_left"/>
    <node id="12383377445" x="3086.46" y="5343.91" type="right_before_left"/>
    <node id="12383377446" x="3087.36" y="5267.29" type="right_before_left"/>
    <node id="12383377447" x="3201.19" y="5318.92" type="right_before_left"/>
    <node id="12383377448" x="3200.92" y="5345.07" type="right_before_left"/>
    <node id="12383377449" x="3217.21" y="5319.31" type="right_before_left"/>
    <node id="12383377450" x="3216.96" y="5345.06" type="right_before_left"/>
    <node id="12383377451" x="3233.48" y="5319.33" type="right_before_left"/>
    <node id="12383377452" x="3233.35" y="5345.44" type="right_before_left"/>
    <node id="12383377453" x="3103.27" y="5318.07" type="right_before_left"/>
    <node id="12383377454" x="3070.92" y="5288.78" type="priority"/>
    <node id="12383377455" x="3071.07" y="5267.46" type="right_before_left"/>
    <node id="12383390767" x="3547.18" y="5672.10" type="priority"/>
    <node id="12383397686" x="3574.10" y="5582.89" type="priority"/>
    <node id="12383397687" x="3575.59" y="5560.29" type="priority"/>
    <node id="12383397690" x="3763.04" y="5318.06" type="right_before_left"/>
    <node id="12384481432" x="3035.36" y="5371.59" type="right_before_left"/>
    <node id="12384481433" x="3035.38" y="5363.81" type="priority"/>
    <node id="12384673141" x="2949.38" y="4750.36" type="priority"/>
    <node id="12384673142" x="2945.00" y="4718.06" type="priority"/>
    <node id="12384673145" x="2938.25" y="4749.44" type="priority"/>
    <node id="12384673147" x="2930.27" y="4741.67" type="priority"/>
    <node id="12384673152" x="2950.14" y="4718.85" type="priority"/>
    <node id="12384673155" x="2960.80" y="4729.52" type="priority"/>
    <node id="12384673159" x="2917.73" y="4763.24" type="priority"/>
    <node id="12391834453" x="4008.47" y="4667.64" type="priority"/>
    <node id="12391834454" x="3999.43" y="4686.51" type="priority"/>
    <node id="12392057684" x="3759.27" y="4827.25" type="priority"/>
    <node id="12392087975" x="3439.36" y="4643.55" type="right_before_left"/>
    <node id="12392253040" x="3374.42" y="5026.76" type="priority"/>
    <node id="12392253041" x="3306.48" y="5046.88" type="priority"/>
    <node id="12392253042" x="3323.28" y="5068.57" type="priority"/>
    <node id="12392348590" x="3469.64" y="5310.74" type="priority"/>
    <node id="12392348591" x="3444.63" y="5310.41" type="priority"/>
    <node id="12392528691" x="3677.92" y="5680.04" type="right_before_left"/>
    <node id="12392528692" x="3751.04" y="5685.37" type="priority"/>
    <node id="12393622658" x="3934.29" y="5841.25" type="priority"/>
    <node id="12394219518" x="3956.11" y="5050.63" type="dead_end"/>
    <node id="12394219526" x="3991.59" y="4888.41" type="dead_end"/>
    <node id="12394219531" x="3972.59" y="4891.06" type="dead_end"/>
    <node id="12394219536" x="3866.52" y="5131.41" type="dead_end"/>
    <node id="12394219551" x="3876.20" y="5052.82" type="dead_end"/>
    <node id="12394219555" x="3905.99" y="5203.60" type="dead_end"/>
    <node id="12394313605" x="3298.38" y="5307.13" type="right_before_left"/>
    <node id="12394313606" x="3322.26" y="5289.34" type="priority"/>
    <node id="12394452870" x="4114.74" y="5004.14" type="priority"/>
    <node id="12394512405" x="4994.34" y="5687.57" type="priority"/>
    <node id="12394596843" x="3774.47" y="5226.75" type="priority"/>
    <node id="12394596845" x="3760.05" y="5228.99" type="priority"/>
    <node id="12394647629" x="3975.78" y="5182.02" type="priority"/>
    <node id="12394647630" x="3919.75" y="5190.57" type="priority"/>
    <node id="12394647631" x="3974.71" y="5190.17" type="right_before_left"/>
    <node id="12394647634" x="3974.15" y="5154.06" type="dead_end"/>
    <node id="12394692313" x="5592.73" y="6127.75" type="priority"/>
    <node id="12394692315" x="5580.01" y="6147.27" type="priority"/>
    <node id="12396502918" x="5144.13" y="5975.71" type="priority"/>
    <node id="12396536690" x="4241.79" y="5361.96" type="right_before_left"/>
    <node id="12396536691" x="4249.70" y="5378.89" type="priority"/>
    <node id="12396536692" x="4175.47" y="5418.05" type="priority"/>
    <node id="12396536693" x="4155.02" y="5407.07" type="right_before_left"/>
    <node id="12396536694" x="4205.11" y="5401.06" type="priority"/>
    <node id="12396536695" x="4184.28" y="5391.43" type="right_before_left"/>
    <node id="12396536696" x="4073.26" y="5560.29" type="priority"/>
    <node id="12396536697" x="4074.80" y="5571.78" type="dead_end"/>
    <node id="12396536698" x="4088.01" y="5555.71" type="priority"/>
    <node id="12396536699" x="3968.69" y="5576.08" type="priority"/>
    <node id="12396536700" x="3995.88" y="5572.57" type="priority"/>
    <node id="12396574901" x="3992.51" y="5586.28" type="priority"/>
    <node id="12396574902" x="4005.40" y="5571.26" type="priority"/>
    <node id="12396574903" x="4114.25" y="5517.64" type="priority"/>
    <node id="12396574904" x="4113.68" y="5519.33" type="priority"/>
    <node id="12396574905" x="4138.59" y="5444.51" type="priority"/>
    <node id="12396574906" x="4134.15" y="5457.92" type="dead_end"/>
    <node id="12396713074" x="4368.09" y="4623.69" type="priority"/>
    <node id="12396713075" x="4309.36" y="4623.24" type="priority"/>
    <node id="12396713076" x="4285.93" y="4426.72" type="dead_end"/>
    <node id="12396713078" x="4121.88" y="4387.90" type="right_before_left"/>
    <node id="12396713079" x="4103.70" y="4412.30" type="priority"/>
    <node id="12488704405" x="3468.06" y="5396.30" type="priority"/>
    <node id="12488704406" x="3604.67" y="5390.21" type="priority"/>
    <node id="12488704407" x="3639.49" y="5382.75" type="priority"/>
    <node id="12505171244" x="4327.30" y="5190.77" type="priority"/>
    <node id="12505354710" x="3973.74" y="4347.33" type="priority"/>
    <node id="12521106705" x="3470.60" y="5255.45" type="priority"/>
    <node id="12521106707" x="3498.13" y="5258.51" type="priority"/>
    <node id="12719407064" x="3642.12" y="4903.17" type="priority"/>
    <node id="12719407066" x="3608.15" y="5100.21" type="priority"/>
    <node id="12719407067" x="3588.25" y="5097.90" type="priority"/>
    <node id="12719407076" x="3660.67" y="5098.13" type="dead_end"/>
    <node id="12719672879" x="3610.23" y="4769.47" type="priority"/>
    <node id="12719672880" x="3612.62" y="4770.65" type="priority"/>
    <node id="12719672881" x="3622.01" y="4766.98" type="priority"/>
    <node id="12719672882" x="3622.97" y="4764.46" type="priority"/>
    <node id="12719672883" x="3610.76" y="4755.92" type="priority"/>
    <node id="12719672884" x="3607.17" y="4765.19" type="priority"/>
    <node id="12719672899" x="3535.65" y="5021.58" type="dead_end"/>
    <node id="12719896102" x="3644.86" y="5000.70" type="dead_end"/>
    <node id="12719896103" x="3537.99" y="5013.81" type="dead_end"/>
    <node id="12719896113" x="3718.82" y="5041.56" type="dead_end"/>
    <node id="12719896114" x="3717.72" y="5058.87" type="dead_end"/>
    <node id="12719896115" x="3737.90" y="5065.39" type="dead_end"/>
    <node id="12719896116" x="3736.96" y="5090.13" type="dead_end"/>
    <node id="12719896117" x="3738.16" y="5060.06" type="dead_end"/>
    <node id="12719896118" x="3758.77" y="5155.36" type="dead_end"/>
    <node id="12719896120" x="3743.53" y="5165.94" type="dead_end"/>
    <node id="12719896123" x="3749.37" y="5196.49" type="dead_end"/>
    <node id="12719896124" x="3731.41" y="5184.52" type="dead_end"/>
    <node id="12719896125" x="3746.45" y="5181.21" type="dead_end"/>
    <node id="12719896126" x="3746.04" y="5196.54" type="dead_end"/>
    <node id="131839003" x="3298.87" y="5256.62" type="priority"/>
    <node id="131839265" x="4151.86" y="5461.75" type="priority"/>
    <node id="131839271" x="3688.38" y="5588.72" type="priority"/>
    <node id="131839272" x="3625.73" y="5585.94" type="priority"/>
    <node id="131843845" x="4089.23" y="4206.51" type="priority"/>
    <node id="131843853" x="4548.05" y="3013.40" type="priority"/>
    <node id="131856200" x="1240.52" y="5378.08" type="priority"/>
    <node id="131856203" x="2093.33" y="5383.80" type="priority"/>
    <node id="1378068834" x="4512.96" y="4916.22" type="priority"/>
    <node id="1512161598" x="4280.51" y="4719.83" type="priority"/>
    <node id="1512161672" x="4285.27" y="4789.48" type="priority"/>
    <node id="1512161674" x="4321.94" y="4790.26" type="priority"/>
    <node id="1512161694" x="4285.17" y="4796.73" type="priority"/>
    <node id="1512161710" x="4256.61" y="4818.71" type="right_before_left"/>
    <node id="1512161715" x="4440.53" y="4828.72" type="priority"/>
    <node id="1512161726" x="4574.59" y="4832.29" type="priority"/>
    <node id="1512161728" x="4496.79" y="4832.38" type="priority"/>
    <node id="1512161760" x="4499.39" y="4846.55" type="priority"/>
    <node id="1512161762" x="4544.91" y="4847.40" type="priority"/>
    <node id="1512161777" x="4436.72" y="4856.85" type="dead_end"/>
    <node id="1512161782" x="4575.25" y="4866.57" type="priority"/>
    <node id="1512161790" x="4284.17" y="4869.46" type="priority"/>
    <node id="1512161793" x="4258.07" y="4870.20" type="right_before_left"/>
    <node id="1512161820" x="4511.21" y="4907.69" type="priority"/>
    <node id="1512161824" x="4483.32" y="4907.29" type="priority"/>
    <node id="1512161830" x="4466.77" y="4910.63" type="dead_end"/>
    <node id="1512161835" x="4339.72" y="4911.98" type="priority"/>
    <node id="1512161836" x="4312.40" y="4912.63" type="dead_end"/>
    <node id="1512161839" x="4371.69" y="4917.30" type="right_before_left"/>
    <node id="1512161842" x="4355.51" y="4917.33" type="priority"/>
    <node id="1512161849" x="4390.89" y="4917.57" type="right_before_left"/>
    <node id="1512161854" x="4407.89" y="4917.81" type="right_before_left"/>
    <node id="1512161857" x="4578.99" y="4920.39" type="priority"/>
    <node id="1512161886" x="4390.40" y="4947.42" type="priority"/>
    <node id="1512161888" x="4407.47" y="4947.74" type="priority"/>
    <node id="1512161905" x="4355.85" y="4950.04" type="priority"/>
    <node id="1512161910" x="4520.52" y="4953.31" type="priority"/>
    <node id="1512161935" x="4495.64" y="4992.42" type="priority"/>
    <node id="1512161966" x="4365.69" y="5024.97" type="priority"/>
    <node id="1512161981" x="4502.19" y="5027.00" type="priority"/>
    <node id="1512161988" x="4326.58" y="5031.17" type="priority"/>
    <node id="1512161989" x="4343.14" y="5031.32" type="right_before_left"/>
    <node id="1512162012" x="4627.03" y="5044.34" type="priority"/>
    <node id="1512162018" x="4608.50" y="5045.83" type="priority"/>
    <node id="1512162033" x="4502.19" y="5047.72" type="priority"/>
    <node id="1512162067" x="4558.96" y="5090.42" type="priority"/>
    <node id="1512162085" x="4304.76" y="5110.45" type="right_before_left"/>
    <node id="1512162101" x="4618.61" y="5116.46" type="priority"/>
    <node id="1512162103" x="4320.82" y="5130.71" type="priority"/>
    <node id="1512162104" x="4388.90" y="5131.40" type="priority"/>
    <node id="1512162105" x="4351.71" y="5131.18" type="priority"/>
    <node id="1512162125" x="4351.14" y="5190.75" type="priority"/>
    <node id="1512162129" x="4484.82" y="5199.01" type="priority"/>
    <node id="1512162154" x="4285.49" y="5229.22" type="priority"/>
    <node id="1512162165" x="4786.78" y="5264.24" type="priority"/>
    <node id="1512162178" x="4489.97" y="5269.54" type="priority"/>
    <node id="1512162190" x="4491.93" y="5292.65" type="priority"/>
    <node id="1512162275" x="4695.28" y="5541.01" type="priority"/>
    <node id="1512162276" x="4690.09" y="5547.80" type="priority"/>
    <node id="1512162332" x="5819.21" y="6186.02" type="priority"/>
    <node id="1512177208" x="4270.30" y="4468.97" type="priority"/>
    <node id="1512177214" x="4138.56" y="4527.66" type="priority"/>
    <node id="1512177216" x="4210.18" y="4529.62" type="priority"/>
    <node id="1512177218" x="4045.58" y="4533.17" type="priority"/>
    <node id="1512177228" x="4147.69" y="4545.72" type="priority"/>
    <node id="1512177230" x="3984.86" y="4554.79" type="priority"/>
    <node id="1512177239" x="3930.99" y="4571.78" type="priority"/>
    <node id="1512177242" x="4042.03" y="4574.05" type="priority"/>
    <node id="1512177256" x="3989.51" y="4590.08" type="priority"/>
    <node id="1512177258" x="4209.66" y="4593.44" type="priority"/>
    <node id="1512177271" x="3927.66" y="4600.14" type="priority"/>
    <node id="1512177280" x="4045.82" y="4610.04" type="priority"/>
    <node id="1512177283" x="4266.20" y="4608.27" type="priority"/>
    <node id="1512177288" x="4266.19" y="4618.56" type="priority"/>
    <node id="1512177293" x="3971.27" y="4619.02" type="priority"/>
    <node id="1512177299" x="4266.19" y="4627.21" type="priority"/>
    <node id="1512177301" x="3739.27" y="4637.26" type="priority"/>
    <node id="1512177303" x="3678.07" y="4653.37" type="priority"/>
    <node id="1512177309" x="3903.13" y="4655.64" type="priority"/>
    <node id="1512177319" x="3851.12" y="4659.50" type="priority"/>
    <node id="1512177322" x="4123.71" y="4660.60" type="priority"/>
    <node id="1512177326" x="4217.69" y="4662.76" type="priority"/>
    <node id="1512177334" x="3771.07" y="4666.93" type="priority"/>
    <node id="1512177347" x="3643.05" y="4677.24" type="priority"/>
    <node id="1512177350" x="3892.33" y="4678.71" type="priority"/>
    <node id="1512177355" x="4035.99" y="4680.78" type="priority"/>
    <node id="1512177369" x="4129.69" y="4679.41" type="priority"/>
    <node id="1512177374" x="3899.10" y="4681.82" type="priority"/>
    <node id="1512177378" x="3584.24" y="4689.61" type="priority"/>
    <node id="1512177380" x="3773.02" y="4706.52" type="priority"/>
    <node id="1512177382" x="3831.00" y="4705.17" type="priority"/>
    <node id="1512177387" x="4292.59" y="4716.42" type="priority"/>
    <node id="1512177389" x="3676.80" y="4727.21" type="priority"/>
    <node id="1512177392" x="4035.29" y="4733.10" type="priority"/>
    <node id="1512177426" x="3734.37" y="4761.39" type="priority"/>
    <node id="1512177429" x="3704.22" y="4766.88" type="priority"/>
    <node id="1512177471" x="3753.40" y="4816.62" type="priority"/>
    <node id="1512177503" x="4022.19" y="4848.21" type="right_before_left"/>
    <node id="1512177514" x="4038.12" y="4849.86" type="right_before_left"/>
    <node id="1512177529" x="3687.56" y="4881.73" type="priority"/>
    <node id="1512177531" x="3731.65" y="4883.15" type="priority"/>
    <node id="1512177536" x="3703.06" y="4904.61" type="priority"/>
    <node id="1512177545" x="3657.91" y="4911.04" type="priority"/>
    <node id="1512177558" x="3733.09" y="4948.94" type="priority"/>
    <node id="1512177563" x="3689.10" y="4971.62" type="priority"/>
    <node id="1512177568" x="3749.25" y="4998.48" type="priority"/>
    <node id="1512177578" x="3792.20" y="5005.95" type="priority"/>
    <node id="1512177583" x="3690.44" y="5024.13" type="priority"/>
    <node id="1512177585" x="3789.19" y="5037.40" type="priority"/>
    <node id="1515745836" x="3690.04" y="5040.39" type="dead_end"/>
    <node id="1515745840" x="3788.37" y="5045.80" type="dead_end"/>
    <node id="1515745843" x="3867.34" y="5051.97" type="dead_end"/>
    <node id="1515745855" x="3955.20" y="5060.34" type="dead_end"/>
    <node id="1515745864" x="3712.46" y="5088.88" type="priority"/>
    <node id="1515745866" x="3759.93" y="5091.35" type="priority"/>
    <node id="1515745873" x="3907.17" y="5120.47" type="dead_end"/>
    <node id="1515745894" x="3954.36" y="5137.35" type="dead_end"/>
    <node id="1515745895" x="3860.15" y="5133.78" type="dead_end"/>
    <node id="1515745896" x="3696.39" y="5138.38" type="priority"/>
    <node id="1515745897" x="3710.57" y="5138.96" type="right_before_left"/>
    <node id="1515745900" x="3757.49" y="5141.74" type="right_before_left"/>
    <node id="1515745940" x="3898.26" y="5169.66" type="priority"/>
    <node id="1515745948" x="3919.10" y="5173.62" type="priority"/>
    <node id="1515745955" x="3772.66" y="5177.21" type="priority"/>
    <node id="1515745964" x="3944.28" y="5177.52" type="priority"/>
    <node id="1515745986" x="3773.38" y="5196.11" type="right_before_left"/>
    <node id="1515745990" x="3920.10" y="5204.56" type="priority"/>
    <node id="1515745993" x="3920.23" y="5206.64" type="priority"/>
    <node id="1515746027" x="3694.95" y="5229.38" type="priority"/>
    <node id="1515746036" x="4305.16" y="5270.23" type="priority"/>
    <node id="1515746049" x="3694.30" y="5278.65" type="priority"/>
    <node id="1515746056" x="3693.88" y="5283.52" type="priority"/>
    <node id="1515746060" x="4421.54" y="5305.50" type="priority"/>
    <node id="1515746093" x="4294.27" y="5335.02" type="priority"/>
    <node id="1515746094" x="4292.46" y="5336.10" type="priority"/>
    <node id="1515746099" x="4420.91" y="5346.31" type="priority"/>
    <node id="1515746112" x="4416.95" y="5352.17" type="priority"/>
    <node id="1515746119" x="3690.70" y="5370.45" type="priority"/>
    <node id="1515746124" x="4182.65" y="5392.34" type="priority"/>
    <node id="1515746144" x="4492.62" y="5407.25" type="priority"/>
    <node id="1515746152" x="4463.46" y="5449.79" type="priority"/>
    <node id="1515746153" x="4130.40" y="5469.27" type="priority"/>
    <node id="1515746155" x="4118.91" y="5503.75" type="right_before_left"/>
    <node id="1515746180" x="4039.33" y="5566.58" type="right_before_left"/>
    <node id="1515746182" x="3991.13" y="5573.23" type="right_before_left"/>
    <node id="1515746184" x="4075.37" y="5575.98" type="priority"/>
    <node id="1515746186" x="3689.72" y="5578.89" type="priority"/>
    <node id="1515746189" x="3905.70" y="5584.08" type="priority"/>
    <node id="1515746204" x="4470.18" y="5600.46" type="priority"/>
    <node id="1515746209" x="3900.00" y="5702.93" type="priority"/>
    <node id="1515746212" x="3673.79" y="5716.11" type="priority"/>
    <node id="1515746214" x="3805.86" y="5729.90" type="priority"/>
    <node id="1515746230" x="4252.04" y="5771.90" type="priority"/>
    <node id="1515746234" x="4282.85" y="5805.46" type="right_before_left"/>
    <node id="1515746240" x="4285.15" y="5863.47" type="priority"/>
    <node id="1515764150" x="3395.52" y="4483.62" type="priority"/>
    <node id="1515764172" x="3545.75" y="4688.61" type="priority"/>
    <node id="1515764186" x="3490.18" y="4707.17" type="priority"/>
    <node id="1515764191" x="3462.24" y="4714.77" type="dead_end"/>
    <node id="1515764195" x="3462.31" y="4735.91" type="right_before_left"/>
    <node id="1515764213" x="3402.14" y="4738.98" type="priority"/>
    <node id="1515764216" x="3566.19" y="4738.56" type="priority"/>
    <node id="1515764224" x="3462.96" y="4743.76" type="right_before_left"/>
    <node id="1515764260" x="3641.56" y="4750.53" type="priority"/>
    <node id="1515764273" x="3523.48" y="4768.44" type="priority"/>
    <node id="1515764298" x="2900.20" y="4781.58" type="priority"/>
    <node id="1515764301" x="3573.72" y="4800.99" type="right_before_left"/>
    <node id="1515764305" x="3645.31" y="4819.37" type="priority"/>
    <node id="1515764311" x="3533.49" y="4840.21" type="priority"/>
    <node id="1515764315" x="3603.57" y="4847.32" type="dead_end"/>
    <node id="1515764331" x="3668.78" y="4854.01" type="priority"/>
    <node id="1515764344" x="3626.49" y="4880.79" type="dead_end"/>
    <node id="1515764361" x="3535.18" y="4889.32" type="priority"/>
    <node id="1515764368" x="3535.85" y="4898.83" type="priority"/>
    <node id="1515764374" x="3582.96" y="4903.77" type="priority"/>
    <node id="1515764379" x="3553.47" y="4914.02" type="priority"/>
    <node id="1515764395" x="3143.81" y="4914.55" type="priority"/>
    <node id="1515764403" x="3471.10" y="4917.85" type="priority"/>
    <node id="1515764412" x="3609.28" y="4957.26" type="priority"/>
    <node id="1515764416" x="3329.06" y="4962.39" type="priority"/>
    <node id="1515764428" x="3643.42" y="4965.22" type="dead_end"/>
    <node id="1515764432" x="3572.27" y="4965.35" type="priority"/>
    <node id="1515764440" x="3181.49" y="4972.38" type="priority"/>
    <node id="1515764446" x="3536.64" y="4973.03" type="priority"/>
    <node id="1515764449" x="3086.06" y="4978.13" type="priority"/>
    <node id="1515764479" x="3211.36" y="5018.24" type="priority"/>
    <node id="1515764481" x="3082.55" y="5020.31" type="priority"/>
    <node id="1515802358" x="3653.83" y="5036.74" type="dead_end"/>
    <node id="1515802363" x="3530.71" y="5021.79" type="dead_end"/>
    <node id="1515802376" x="3332.22" y="5027.50" type="priority"/>
    <node id="1515802382" x="3195.46" y="5028.94" type="priority"/>
    <node id="1515802397" x="3093.62" y="5035.45" type="priority"/>
    <node id="1515802404" x="3072.97" y="5038.13" type="priority"/>
    <node id="1515802416" x="3659.88" y="5039.23" type="dead_end"/>
    <node id="1515802435" x="3054.76" y="5050.56" type="priority"/>
    <node id="1515802441" x="3536.89" y="5060.15" type="priority"/>
    <node id="1515802446" x="3590.20" y="5056.25" type="priority"/>
    <node id="1515802451" x="3280.65" y="5065.23" type="priority"/>
    <node id="1515802455" x="3125.74" y="5076.78" type="priority"/>