<?xml version="1.0" encoding="UTF-8"?>

<!-- generated on 2025-04-09 00:07:08 by Eclipse SUMO netconvert Version 1.19.0
<configuration xmlns:xsi="http://www.w3.org/2001/XMLSchema-instance" xsi:noNamespaceSchemaLocation="http://sumo.dlr.de/xsd/netconvertConfiguration.xsd">

    <input>
        <sumo-net-file value="nangis/nangis.net.xml"/>
    </input>

    <output>
        <plain-output-prefix value="nangis/nangis"/>
    </output>

    <processing>
        <geometry.min-radius.fix.railways value="false"/>
        <geometry.max-grade.fix value="false"/>
        <offset.disable-normalization value="true"/>
        <lefthand value="0"/>
    </processing>

    <tls_building>
        <tls.ignore-internal-junction-jam value="1"/>
    </tls_building>

    <junctions>
        <no-turnarounds value="true"/>
        <junctions.corner-detail value="5"/>
        <junctions.limit-turn-speed value="5.50"/>
        <rectangular-lane-cut value="0"/>
    </junctions>

    <pedestrian>
        <walkingareas value="0"/>
    </pedestrian>

</configuration>
-->

<connections version="1.16" xmlns:xsi="http://www.w3.org/2001/XMLSchema-instance" xsi:noNamespaceSchemaLocation="http://sumo.dlr.de/xsd/connections_file.xsd">
    <connection from="-1008164501" to="533776874#2" fromLane="0" toLane="0"/>
    <connection from="-1008164501" to="-533776874#1" fromLane="0" toLane="0"/>
    <connection from="-1008164501" to="1008164501" fromLane="0" toLane="0"/>

    <connection from="-1008164509" to="1008164509" fromLane="0" toLane="0"/>

    <connection from="-1008164510#0" to="-1008164509" fromLane="0" toLane="0"/>
    <connection from="-1008164510#0" to="138258168#0" fromLane="0" toLane="0"/>

    <connection from="-1008164510#1" to="-1008164510#0" fromLane="0" toLane="0"/>
    <connection from="-1008164510#1" to="1339926392" fromLane="0" toLane="0"/>

    <connection from="-1008164510#2" to="-1008164510#1" fromLane="0" toLane="0"/>

    <connection from="-1008164511" to="47636025#1" fromLane="0" toLane="0"/>
    <connection from="-1008164511" to="-47636025#0" fromLane="0" toLane="0"/>
    <connection from="-1008164511" to="1008164511" fromLane="0" toLane="0"/>

    <connection from="-1008164519" to="659591788#1" fromLane="0" toLane="0"/>
    <connection from="-1008164519" to="-659591788#0" fromLane="0" toLane="0"/>
    <connection from="-1008164519" to="1008164519" fromLane="0" toLane="0"/>

    <connection from="-1008164531" to="1008164531" fromLane="0" toLane="0"/>

    <connection from="-1008164533" to="-1339913720#0" fromLane="0" toLane="0"/>
    <connection from="-1008164533" to="1339913720#1" fromLane="0" toLane="0"/>
    <connection from="-1008164533" to="1008164532" fromLane="0" toLane="0"/>

    <connection from="-1008164534#0" to="-155612752#3" fromLane="0" toLane="0"/>
    <connection from="-1008164534#0" to="155612752#4" fromLane="0" toLane="0"/>
    <connection from="-1008164534#0" to="1008164534#0" fromLane="0" toLane="0"/>

    <connection from="-1008164535" to="1008164535" fromLane="0" toLane="0"/>

    <connection from="-1008164536#0" to="-1008164534#0" fromLane="0" toLane="0"/>
    <connection from="-1008164536#0" to="1008164534#1" fromLane="0" toLane="0"/>

    <connection from="-1008164543" to="1008164544#1" fromLane="0" toLane="0"/>
    <connection from="-1008164543" to="-1008164544#0" fromLane="0" toLane="0"/>
    <connection from="-1008164543" to="1008164543" fromLane="0" toLane="0"/>

    <connection from="-1008164544#0" to="155612752#3" fromLane="0" toLane="0"/>
    <connection from="-1008164544#0" to="-155612752#2" fromLane="0" toLane="0"/>
    <connection from="-1008164544#0" to="1008164546" fromLane="0" toLane="0"/>

    <connection from="-1008164544#1" to="-1008164544#0" fromLane="0" toLane="0"/>
    <connection from="-1008164544#1" to="1008164543" fromLane="0" toLane="0"/>
    <connection from="-1008164544#1" to="1008164544#1" fromLane="0" toLane="0"/>

    <connection from="-1008164571" to="155612770#2" fromLane="0" toLane="0"/>
    <connection from="-1008164571" to="1008164586" fromLane="0" toLane="0"/>

    <connection from="-1008164574" to="155612770#1" fromLane="0" toLane="0"/>
    <connection from="-1008164574" to="1008164576" fromLane="0" toLane="0"/>

    <connection from="-1008164606#0" to="-1008164609" fromLane="0" toLane="0" keepClear="0"/>

    <connection from="-1008164606#1" to="-1008164606#0" fromLane="0" toLane="0"/>
    <connection from="-1008164606#1" to="155612749" fromLane="0" toLane="0"/>
    <connection from="-1008164606#1" to="1008164606#1" fromLane="0" toLane="0"/>

    <connection from="-1008164609" to="-155612776#1" fromLane="0" toLane="0"/>
    <connection from="-1008164609" to="155612776#2" fromLane="0" toLane="0"/>
    <connection from="-1008164609" to="1008164609" fromLane="0" toLane="0"/>

    <connection from="-1008164616" to="1008164607" fromLane="0" toLane="0"/>

    <connection from="-1008164623#0" to="155612775#4" fromLane="0" toLane="0"/>
    <connection from="-1008164623#0" to="1008164623#0" fromLane="0" toLane="0"/>

    <connection from="-1008164624" to="155612781#1" fromLane="0" toLane="0"/>
    <connection from="-1008164624" to="-1008164623#0" fromLane="0" toLane="0"/>
    <connection from="-1008164624" to="1008164623#1" fromLane="0" toLane="0"/>

    <connection from="-1009960109" to="428087735" fromLane="0" toLane="0"/>

    <connection from="-1009960110" to="148726253#0" fromLane="0" toLane="0"/>
    <connection from="-1009960110" to="1009960112#0" fromLane="0" toLane="0"/>
    <connection from="-1009960110" to="1009960110" fromLane="0" toLane="0"/>

    <connection from="-1009960111" to="-1009960112#1" fromLane="0" toLane="0"/>
    <connection from="-1009960111" to="1009960112#2" fromLane="0" toLane="0"/>
    <connection from="-1009960111" to="1009960111" fromLane="0" toLane="0"/>

    <connection from="-1009960112#0" to="1009960110" fromLane="0" toLane="0"/>
    <connection from="-1009960112#0" to="148726253#0" fromLane="0" toLane="0"/>
    <connection from="-1009960112#0" to="1009960112#0" fromLane="0" toLane="0"/>

    <connection from="-1009960112#1" to="1009960115" fromLane="0" toLane="0"/>
    <connection from="-1009960112#1" to="-1009960112#0" fromLane="0" toLane="0"/>
    <connection from="-1009960112#1" to="1009960112#1" fromLane="0" toLane="0"/>

    <connection from="-1009960112#2" to="1009960111" fromLane="0" toLane="0"/>
    <connection from="-1009960112#2" to="-1009960112#1" fromLane="0" toLane="0"/>
    <connection from="-1009960112#2" to="1009960112#2" fromLane="0" toLane="0"/>

    <connection from="-1009960116" to="-1009960112#0" fromLane="0" toLane="0"/>
    <connection from="-1009960116" to="1009960112#1" fromLane="0" toLane="0"/>
    <connection from="-1009960116" to="1009960115" fromLane="0" toLane="0"/>

    <connection from="-1009960121#0" to="1338885899" fromLane="0" toLane="0"/>
    <connection from="-1009960121#0" to="-1009960129#1" fromLane="0" toLane="0"/>
    <connection from="-1009960121#0" to="1338885897" fromLane="0" toLane="0"/>
    <connection from="-1009960121#0" to="1009960121#0" fromLane="0" toLane="0"/>

    <connection from="-1009960122#0" to="148726244#3" fromLane="0" toLane="0"/>
    <connection from="-1009960122#0" to="-148726244#2" fromLane="0" toLane="0"/>
    <connection from="-1009960122#0" to="1009960122#0" fromLane="0" toLane="0"/>

    <connection from="-1009960122#1" to="-1009960122#0" fromLane="0" toLane="0"/>
    <connection from="-1009960122#1" to="-1009960123" fromLane="0" toLane="0"/>
    <connection from="-1009960122#1" to="1009960122#1" fromLane="0" toLane="0"/>

    <connection from="-1009960123" to="1009960128" fromLane="0" toLane="0"/>
    <connection from="-1009960123" to="-1009960121#0" fromLane="0" toLane="0"/>
    <connection from="-1009960123" to="1009960121#1" fromLane="0" toLane="0"/>

    <connection from="-1009960125" to="1009960126" fromLane="0" toLane="0"/>
    <connection from="-1009960125" to="-1009960128" fromLane="0" toLane="0"/>
    <connection from="-1009960125" to="1009960125" fromLane="0" toLane="0"/>

    <connection from="-1009960126" to="-1009960128" fromLane="0" toLane="0"/>
    <connection from="-1009960126" to="1009960125" fromLane="0" toLane="0"/>
    <connection from="-1009960126" to="1009960126" fromLane="0" toLane="0"/>

    <connection from="-1009960128" to="-1009960121#0" fromLane="0" toLane="0"/>
    <connection from="-1009960128" to="1009960121#1" fromLane="0" toLane="0"/>
    <connection from="-1009960128" to="1009960128" fromLane="0" toLane="0"/>

    <connection from="-1009960129#0" to="659591818#1" fromLane="0" toLane="0"/>
    <connection from="-1009960129#0" to="-659591818#0" fromLane="0" toLane="0"/>
    <connection from="-1009960129#0" to="1009960129#0" fromLane="0" toLane="0"/>

    <connection from="-1009960129#1" to="-1009960129#0" fromLane="0" toLane="0"/>
    <connection from="-1009960129#1" to="-1009960151" fromLane="0" toLane="0"/>
    <connection from="-1009960129#1" to="1009960129#1" fromLane="0" toLane="0"/>

    <connection from="-1009960134" to="333946295#1" fromLane="0" toLane="0"/>
    <connection from="-1009960134" to="771082189#0" fromLane="0" toLane="0"/>
    <connection from="-1009960134" to="-333946295#0" fromLane="0" toLane="0"/>
    <connection from="-1009960134" to="1009960149" fromLane="0" toLane="0"/>

    <connection from="-1009960135#0" to="1009960135#0" fromLane="0" toLane="0"/>

    <connection from="-1009960135#1" to="-1009960142#1" fromLane="0" toLane="0"/>
    <connection from="-1009960135#1" to="-1009960135#0" fromLane="0" toLane="0"/>
    <connection from="-1009960135#1" to="1009960135#1" fromLane="0" toLane="0"/>

    <connection from="-1009960135#2" to="-1009960135#1" fromLane="0" toLane="0"/>
    <connection from="-1009960135#2" to="-1009960134" fromLane="0" toLane="0"/>
    <connection from="-1009960135#2" to="1009960135#2" fromLane="0" toLane="0"/>

    <connection from="-1009960136#0" to="1009960136#0" fromLane="0" toLane="0"/>

    <connection from="-1009960136#1" to="-1009960137" fromLane="0" toLane="0"/>
    <connection from="-1009960136#1" to="-1009960136#0" fromLane="0" toLane="0"/>
    <connection from="-1009960136#1" to="1009960136#1" fromLane="0" toLane="0"/>

    <connection from="-1009960136#2" to="-1009960136#1" fromLane="0" toLane="0"/>
    <connection from="-1009960136#2" to="-1009960135#2" fromLane="0" toLane="0"/>
    <connection from="-1009960136#2" to="1009960136#2" fromLane="0" toLane="0"/>

    <connection from="-1009960137" to="-1009960141#2" fromLane="0" toLane="0"/>
    <connection from="-1009960137" to="1009960141#3" fromLane="0" toLane="0"/>
    <connection from="-1009960137" to="1009960137" fromLane="0" toLane="0"/>

    <connection from="-1009960138" to="1009960138" fromLane="0" toLane="0"/>

    <connection from="-1009960141#0" to="1009960142#0" fromLane="0" toLane="0"/>
    <connection from="-1009960141#0" to="-1009960144" fromLane="0" toLane="0"/>
    <connection from="-1009960141#0" to="1009960146" fromLane="0" toLane="0"/>

    <connection from="-1009960141#1" to="1009960143" fromLane="0" toLane="0"/>
    <connection from="-1009960141#1" to="-1009960141#0" fromLane="0" toLane="0"/>
    <connection from="-1009960141#1" to="1009960141#1" fromLane="0" toLane="0"/>

    <connection from="-1009960141#2" to="-1009960141#1" fromLane="0" toLane="0"/>
    <connection from="-1009960141#2" to="1009960145" fromLane="0" toLane="0"/>
    <connection from="-1009960141#2" to="1009960141#2" fromLane="0" toLane="0"/>

    <connection from="-1009960141#3" to="1009960137" fromLane="0" toLane="0"/>
    <connection from="-1009960141#3" to="-1009960141#2" fromLane="0" toLane="0"/>
    <connection from="-1009960141#3" to="1009960141#3" fromLane="0" toLane="0"/>

    <connection from="-1009960142#0" to="-1009960144" fromLane="0" toLane="0"/>
    <connection from="-1009960142#0" to="1009960146" fromLane="0" toLane="0"/>
    <connection from="-1009960142#0" to="1009960142#0" fromLane="0" toLane="0"/>

    <connection from="-1009960142#1" to="-1009960138" fromLane="0" toLane="0"/>
    <connection from="-1009960142#1" to="-1009960142#0" fromLane="0" toLane="0"/>
    <connection from="-1009960142#1" to="1009960142#1" fromLane="0" toLane="0"/>

    <connection from="-1009960143" to="-1009960141#0" fromLane="0" toLane="0"/>
    <connection from="-1009960143" to="1009960141#1" fromLane="0" toLane="0"/>
    <connection from="-1009960143" to="1009960143" fromLane="0" toLane="0"/>

    <connection from="-1009960144" to="-1009960141#3" fromLane="0" toLane="0"/>
    <connection from="-1009960144" to="-1009960145" fromLane="0" toLane="0"/>
    <connection from="-1009960144" to="1009960144" fromLane="0" toLane="0"/>

    <connection from="-1009960145" to="1009960141#2" fromLane="0" toLane="0"/>
    <connection from="-1009960145" to="-1009960141#1" fromLane="0" toLane="0"/>
    <connection from="-1009960145" to="1009960145" fromLane="0" toLane="0"/>

    <connection from="-1009960151" to="601107611#1" fromLane="0" toLane="0"/>
    <connection from="-1009960151" to="333946295#0" fromLane="0" toLane="0"/>
    <connection from="-1009960151" to="-601107611#0" fromLane="0" toLane="0"/>
    <connection from="-1009960151" to="1009960151" fromLane="0" toLane="0"/>

    <connection from="-1009960152" to="-659591819" fromLane="0" toLane="0"/>

    <connection from="-1009960153#0" to="1009960153#0" fromLane="0" toLane="0"/>

    <connection from="-1009960153#1" to="23756299#0" fromLane="0" toLane="0"/>
    <connection from="-1009960153#1" to="-1009960153#0" fromLane="0" toLane="0"/>
    <connection from="-1009960153#1" to="1009960153#1" fromLane="0" toLane="0"/>

    <connection from="-1009960153#2" to="-1009960152" fromLane="0" toLane="0"/>
    <connection from="-1009960153#2" to="-1009960153#1" fromLane="0" toLane="0"/>
    <connection from="-1009960153#2" to="659591818#0" fromLane="0" toLane="0"/>
    <connection from="-1009960153#2" to="1009960153#2" fromLane="0" toLane="0"/>

    <connection from="-1009960153#3" to="-1009960153#2" fromLane="0" toLane="0"/>
    <connection from="-1009960153#3" to="1009960153#3" fromLane="0" toLane="0"/>

    <connection from="-1009960157" to="-75685360#1" fromLane="0" toLane="0"/>
    <connection from="-1009960157" to="75685360#2" fromLane="0" toLane="0"/>
    <connection from="-1009960157" to="1009960157" fromLane="0" toLane="0"/>

    <connection from="-1009960158" to="-333946288#0" fromLane="0" toLane="0"/>
    <connection from="-1009960158" to="-1009960157" fromLane="0" toLane="0"/>
    <connection from="-1009960158" to="333946288#1" fromLane="0" toLane="0"/>

    <connection from="-1020615553" to="138264760#2" fromLane="0" toLane="0"/>
    <connection from="-1020615553" to="1020615553" fromLane="0" toLane="0"/>

    <connection from="-1020615554" to="138264760#3" fromLane="0" toLane="0"/>
    <connection from="-1020615554" to="1020615554" fromLane="0" toLane="0"/>

    <connection from="-1059906004#0" to="1059906004#0" fromLane="0" toLane="0"/>

    <connection from="-1059906004#1" to="38666402#1" fromLane="0" toLane="0"/>
    <connection from="-1059906004#1" to="-1059906004#0" fromLane="0" toLane="0"/>
    <connection from="-1059906004#1" to="1059906004#1" fromLane="0" toLane="0"/>

    <connection from="-1059906022" to="1059906022" fromLane="0" toLane="0"/>

    <connection from="-1059906025" to="-1059906026#0" fromLane="0" toLane="0"/>
    <connection from="-1059906025" to="1059906026#1" fromLane="0" toLane="0"/>
    <connection from="-1059906025" to="1059906025" fromLane="0" toLane="0"/>

    <connection from="-1059906026#0" to="1059906026#0" fromLane="0" toLane="0"/>

    <connection from="-1059906026#1" to="1059906025" fromLane="0" toLane="0"/>
    <connection from="-1059906026#1" to="-1059906026#0" fromLane="0" toLane="0"/>
    <connection from="-1059906026#1" to="1059906026#1" fromLane="0" toLane="0"/>

    <connection from="-1059906028" to="48609236#2" fromLane="0" toLane="0"/>
    <connection from="-1059906028" to="-48609236#1" fromLane="0" toLane="0"/>
    <connection from="-1059906028" to="1059906028" fromLane="0" toLane="0"/>

    <connection from="-1060093169" to="1060093169" fromLane="0" toLane="0"/>

    <connection from="-1060093170" to="272326698#5" fromLane="0" toLane="0"/>
    <connection from="-1060093170" to="-1338715420" fromLane="0" toLane="0"/>
    <connection from="-1060093170" to="1060093170" fromLane="0" toLane="0"/>

    <connection from="-1060093177" to="-1060093178#0" fromLane="0" toLane="0"/>
    <connection from="-1060093177" to="1060093178#1" fromLane="0" toLane="0"/>
    <connection from="-1060093177" to="1060093177" fromLane="0" toLane="0"/>

    <connection from="-1060093178#0" to="175820999#9" fromLane="0" toLane="0"/>
    <connection from="-1060093178#0" to="-175820999#8" fromLane="0" toLane="0"/>
    <connection from="-1060093178#0" to="1060093178#0" fromLane="0" toLane="0"/>

    <connection from="-1060093178#1" to="1060093177" fromLane="0" toLane="0"/>
    <connection from="-1060093178#1" to="-1060093178#0" fromLane="0" toLane="0"/>
    <connection from="-1060093178#1" to="1060093178#1" fromLane="0" toLane="0"/>

    <connection from="-1060093180" to="-137901144#0" fromLane="0" toLane="0"/>
    <connection from="-1060093180" to="137901144#1" fromLane="0" toLane="0"/>
    <connection from="-1060093180" to="1060093180" fromLane="0" toLane="0"/>

    <connection from="-1060093181" to="-137901144#2" fromLane="0" toLane="0"/>
    <connection from="-1060093181" to="137901144#3" fromLane="0" toLane="0"/>
    <connection from="-1060093181" to="1060093181" fromLane="0" toLane="0"/>

    <connection from="-1087176578#0" to="1339823961" fromLane="0" toLane="0"/>
    <connection from="-1087176578#0" to="-30003458#5" fromLane="0" toLane="0"/>
    <connection from="-1087176578#0" to="1059906012" fromLane="0" toLane="0"/>
    <connection from="-1087176578#0" to="1087176578#0" fromLane="0" toLane="0"/>

    <connection from="-1087176578#1" to="-1087176578#0" fromLane="0" toLane="0"/>
    <connection from="-1087176578#1" to="1087176578#1" fromLane="0" toLane="0"/>

    <connection from="-1099306446" to="287016712#2" fromLane="0" toLane="0"/>
    <connection from="-1099306446" to="-287016712#1" fromLane="0" toLane="0"/>
    <connection from="-1099306446" to="1099306446" fromLane="0" toLane="0"/>

    <connection from="-1102940998" to="36930633#1" fromLane="0" toLane="0"/>
    <connection from="-1102940998" to="1102940998" fromLane="0" toLane="0"/>

    <connection from="-1102940999" to="-659591828#9" fromLane="0" toLane="0"/>
    <connection from="-1102940999" to="1102940999" fromLane="0" toLane="0"/>

    <connection from="-1102941002" to="659591836" fromLane="0" toLane="0"/>
    <connection from="-1102941002" to="-659591827" fromLane="0" toLane="0"/>
    <connection from="-1102941002" to="1102941002" fromLane="0" toLane="0"/>

    <connection from="-1102941004" to="-659591837#1" fromLane="0" toLane="0"/>
    <connection from="-1102941004" to="1102941004" fromLane="0" toLane="0"/>

    <connection from="-1128309948" to="49021660#2" fromLane="0" toLane="0"/>
    <connection from="-1128309948" to="-49021660#1" fromLane="0" toLane="0"/>
    <connection from="-1128309948" to="1128309948" fromLane="0" toLane="0"/>

    <connection from="-1128309949" to="-148726244#1" fromLane="0" toLane="0"/>
    <connection from="-1128309949" to="148726244#2" fromLane="0" toLane="0"/>
    <connection from="-1128309949" to="1128309949" fromLane="0" toLane="0"/>

    <connection from="-1128309950" to="-148726244#0" fromLane="0" toLane="0"/>
    <connection from="-1128309950" to="148726244#1" fromLane="0" toLane="0"/>
    <connection from="-1128309950" to="1128309950" fromLane="0" toLane="0"/>

    <connection from="-1160860396" to="601132749" fromLane="0" toLane="0"/>
    <connection from="-1160860396" to="601132749" fromLane="0" toLane="1"/>

    <connection from="-1165351162" to="-659591799#1" fromLane="0" toLane="0"/>
    <connection from="-1165351162" to="659591799#2" fromLane="0" toLane="0"/>
    <connection from="-1165351162" to="1165351162" fromLane="0" toLane="0"/>

    <connection from="-1165351178#0" to="-659591823#1" fromLane="0" toLane="0"/>
    <connection from="-1165351178#0" to="-406151095#0" fromLane="0" toLane="0"/>
    <connection from="-1165351178#0" to="-138260624#6" fromLane="0" toLane="0"/>
    <connection from="-1165351178#0" to="406151095#1" fromLane="0" toLane="0"/>

    <connection from="-1165351178#1" to="-1165351178#0" fromLane="0" toLane="0"/>

    <connection from="-1218021457#0" to="1218021457#0" fromLane="0" toLane="0"/>

    <connection from="-1218021457#1" to="1218021458#0" fromLane="0" toLane="0"/>
    <connection from="-1218021457#1" to="-1218021457#0" fromLane="0" toLane="0"/>
    <connection from="-1218021457#1" to="1218021457#1" fromLane="0" toLane="0"/>

    <connection from="-1218021458#0" to="-1218021457#0" fromLane="0" toLane="0"/>
    <connection from="-1218021458#0" to="1218021457#1" fromLane="0" toLane="0"/>
    <connection from="-1218021458#0" to="1218021458#0" fromLane="0" toLane="0"/>

    <connection from="-1218021459" to="-1218021458#0" fromLane="0" toLane="0"/>
    <connection from="-1218021459" to="-1218021457#1" fromLane="0" toLane="0"/>
    <connection from="-1218021459" to="1218021458#1" fromLane="0" toLane="0"/>

    <connection from="-1218021461" to="75687375#1" fromLane="0" toLane="0"/>
    <connection from="-1218021461" to="-75687375#0" fromLane="0" toLane="0"/>
    <connection from="-1218021461" to="1218021461" fromLane="0" toLane="0"/>

    <connection from="-123654790#0" to="30004159#2" fromLane="0" toLane="0" visibility="9.00"/>

    <connection from="-123654790#1" to="-123654790#0" fromLane="0" toLane="0"/>
    <connection from="-123654790#1" to="-137901144#3" fromLane="0" toLane="0"/>
    <connection from="-123654790#1" to="123654790#1" fromLane="0" toLane="0"/>

    <connection from="-1265461528" to="-942476408#0" fromLane="0" toLane="0"/>
    <connection from="-1265461528" to="942476408#1" fromLane="0" toLane="0"/>
    <connection from="-1265461528" to="1265461528" fromLane="0" toLane="0"/>

    <connection from="-1338620587" to="138258887#3" fromLane="0" toLane="0"/>
    <connection from="-1338620587" to="-138258887#2" fromLane="0" toLane="0"/>
    <connection from="-1338620587" to="1338620587" fromLane="0" toLane="0"/>

    <connection from="-1338623740#0" to="137902334#1" fromLane="0" toLane="0"/>
    <connection from="-1338623740#0" to="137902338" fromLane="0" toLane="0"/>
    <connection from="-1338623740#0" to="-137902334#0" fromLane="0" toLane="0"/>
    <connection from="-1338623740#0" to="1338623740#0" fromLane="0" toLane="0"/>

    <connection from="-1338623740#1" to="-1338623740#0" fromLane="0" toLane="0"/>
    <connection from="-1338623740#1" to="1338623741" fromLane="0" toLane="0"/>
    <connection from="-1338623740#1" to="1338623740#1" fromLane="0" toLane="0"/>

    <connection from="-1338623741" to="1338623740#1" fromLane="0" toLane="0"/>
    <connection from="-1338623741" to="-1338623740#0" fromLane="0" toLane="0"/>
    <connection from="-1338623741" to="1338623741" fromLane="0" toLane="0"/>

    <connection from="-1338626636" to="361693180" fromLane="0" toLane="0"/>
    <connection from="-1338626636" to="-138258155" fromLane="0" toLane="0"/>
    <connection from="-1338626636" to="1338626636" fromLane="0" toLane="0"/>

    <connection from="-1338628098" to="-272325186#0" fromLane="0" toLane="0"/>
    <connection from="-1338628098" to="272325186#1" fromLane="0" toLane="0"/>
    <connection from="-1338628098" to="1338628098" fromLane="0" toLane="0"/>

    <connection from="-1338628360#0" to="272325186#2" fromLane="0" toLane="0"/>
    <connection from="-1338628360#0" to="-272325186#1" fromLane="0" toLane="0"/>
    <connection from="-1338628360#0" to="1338628360#0" fromLane="0" toLane="0"/>

    <connection from="-1338628360#1" to="-1338628360#0" fromLane="0" toLane="0"/>

    <connection from="-1338638162#0" to="1338638164" fromLane="0" toLane="0"/>
    <connection from="-1338638162#0" to="1338638162#0" fromLane="0" toLane="0"/>

    <connection from="-1338638162#1" to="-560978044#1" fromLane="0" toLane="0"/>
    <connection from="-1338638162#1" to="-1338638162#0" fromLane="0" toLane="0"/>
    <connection from="-1338638162#1" to="1338638162#1" fromLane="0" toLane="0"/>

    <connection from="-1338638162#2" to="-560978042#1" fromLane="0" toLane="0"/>
    <connection from="-1338638162#2" to="-1338638162#1" fromLane="0" toLane="0"/>
    <connection from="-1338638162#2" to="1338638162#2" fromLane="0" toLane="0"/>

    <connection from="-1338638162#3" to="-47634939#1" fromLane="0" toLane="0"/>
    <connection from="-1338638162#3" to="-1338638162#2" fromLane="0" toLane="0"/>
    <connection from="-1338638162#3" to="1338638162#3" fromLane="0" toLane="0"/>

    <connection from="-1338638162#4" to="-560978040#1" fromLane="0" toLane="0"/>
    <connection from="-1338638162#4" to="-1338638162#3" fromLane="0" toLane="0"/>
    <connection from="-1338638162#4" to="1338638162#4" fromLane="0" toLane="0"/>

    <connection from="-1338638162#5" to="-47634940#1" fromLane="0" toLane="0"/>
    <connection from="-1338638162#5" to="-1338638162#4" fromLane="0" toLane="0"/>
    <connection from="-1338638162#5" to="1338638162#5" fromLane="0" toLane="0"/>

    <connection from="-1338638162#6" to="560978038#0" fromLane="0" toLane="0"/>
    <connection from="-1338638162#6" to="-1338638162#5" fromLane="0" toLane="0"/>
    <connection from="-1338638162#6" to="1338638162#6" fromLane="0" toLane="0"/>

    <connection from="-1338638162#7" to="-1338736877#1" fromLane="0" toLane="0"/>
    <connection from="-1338638162#7" to="-1338638162#6" fromLane="0" toLane="0"/>
    <connection from="-1338638162#7" to="1338638162#7" fromLane="0" toLane="0"/>

    <connection from="-1338638162#8" to="1338863159" fromLane="0" toLane="0"/>
    <connection from="-1338638162#8" to="-1338638162#7" fromLane="0" toLane="0"/>
    <connection from="-1338638162#8" to="1338638162#8" fromLane="0" toLane="0"/>

    <connection from="-1338639585#0" to="-1338639585#4" fromLane="0" toLane="0"/>
    <connection from="-1338639585#0" to="138260566" fromLane="0" toLane="0"/>
    <connection from="-1338639585#0" to="1338639585#5" fromLane="0" toLane="0"/>

    <connection from="-1338639585#1" to="-1338639585#0" fromLane="0" toLane="0"/>
    <connection from="-1338639585#1" to="1338639585#1" fromLane="0" toLane="0"/>

    <connection from="-1338639585#2" to="-1338639585#1" fromLane="0" toLane="0"/>
    <connection from="-1338639585#2" to="-1338639586" fromLane="0" toLane="0"/>
    <connection from="-1338639585#2" to="1338639585#2" fromLane="0" toLane="0"/>

    <connection from="-1338639585#3" to="-1338639585#2" fromLane="0" toLane="0"/>
    <connection from="-1338639585#3" to="-1338736882" fromLane="0" toLane="0"/>
    <connection from="-1338639585#3" to="1338639585#3" fromLane="0" toLane="0"/>

    <connection from="-1338639585#4" to="-1338639585#3" fromLane="0" toLane="0"/>
    <connection from="-1338639585#4" to="47634924#0" fromLane="0" toLane="0"/>
    <connection from="-1338639585#4" to="1338639585#4" fromLane="0" toLane="0"/>

    <connection from="-1338639586" to="13938275#1" fromLane="0" toLane="0"/>
    <connection from="-1338639586" to="-13938275#0" fromLane="0" toLane="0"/>
    <connection from="-1338639586" to="1338639586" fromLane="0" toLane="0"/>

    <connection from="-1338657754" to="137902346#2" fromLane="0" toLane="0"/>
    <connection from="-1338657754" to="-137902346#1" fromLane="0" toLane="0"/>
    <connection from="-1338657754" to="1338657754" fromLane="0" toLane="0"/>

    <connection from="-1338658424" to="272325187#5" fromLane="0" toLane="0"/>
    <connection from="-1338658424" to="1338658424" fromLane="0" toLane="0"/>

    <connection from="-1338666902#0" to="1338666902#0" fromLane="0" toLane="0"/>

    <connection from="-1338666902#1" to="-1338666902#0" fromLane="0" toLane="0"/>
    <connection from="-1338666902#1" to="-1338666903" fromLane="0" toLane="0"/>
    <connection from="-1338666902#1" to="1338666902#1" fromLane="0" toLane="0"/>

    <connection from="-1338666903" to="14129274#3" fromLane="0" toLane="0"/>
    <connection from="-1338666903" to="-14129274#2" fromLane="0" toLane="0"/>
    <connection from="-1338666903" to="1338666903" fromLane="0" toLane="0"/>

    <connection from="-1338666904" to="1338666904" fromLane="0" toLane="0"/>

    <connection from="-1338671111" to="-272325184" fromLane="0" toLane="0"/>
    <connection from="-1338671111" to="1338671112" fromLane="0" toLane="0"/>
    <connection from="-1338671111" to="1338671111" fromLane="0" toLane="0"/>

    <connection from="-1338671112" to="1338671111" fromLane="0" toLane="0"/>
    <connection from="-1338671112" to="-272325184" fromLane="0" toLane="0"/>
    <connection from="-1338671112" to="1338671112" fromLane="0" toLane="0"/>

    <connection from="-1338677246" to="14129274#6" fromLane="0" toLane="0"/>
    <connection from="-1338677246" to="-14129274#5" fromLane="0" toLane="0"/>
    <connection from="-1338677246" to="1338677246" fromLane="0" toLane="0"/>

    <connection from="-1338677247" to="14129274#7" fromLane="0" toLane="0"/>
    <connection from="-1338677247" to="-14129274#6" fromLane="0" toLane="0"/>
    <connection from="-1338677247" to="1338677247" fromLane="0" toLane="0"/>

    <connection from="-1338697409#0" to="272325098#0" fromLane="0" toLane="0"/>
    <connection from="-1338697409#0" to="1338697409#0" fromLane="0" toLane="0"/>

    <connection from="-1338697409#1" to="-1338697409#0" fromLane="0" toLane="0"/>

    <connection from="-1338700817" to="-75615062#0" fromLane="0" toLane="0"/>
    <connection from="-1338700817" to="75615062#1" fromLane="0" toLane="0"/>
    <connection from="-1338700817" to="1338700818" fromLane="0" toLane="0"/>
