<edges xmlns:xsi="http://www.w3.org/2001/XMLSchema-instance" version="1.16" xsi:noNamespaceSchemaLocation="http://sumo.dlr.de/xsd/edges_file.xsd">
    <location netOffset="-497095.76,-5372756.02" convBoundary="0.00,0.00,7239.82,10691.06" origBoundary="2.505475,48.424568,3.301254,48.649231" projParameter="+proj=utm +zone=31 +ellps=WGS84 +datum=WGS84 +units=m +no_defs" />

    <edge id="-1008164510#0" from="12394647630" to="1515745948" priority="4" type="highway.unclassified" numLanes="1" speed="13.89" disallow="tram rail_urban rail rail_electric rail_fast ship" />
    <edge id="-1008164510#1" from="1515745990" to="12394647630" priority="4" type="highway.unclassified" numLanes="1" speed="13.89" shape="3920.10,5204.56 3920.06,5198.47 3919.75,5190.57" disallow="tram rail_urban rail rail_electric rail_fast ship" />
    <edge id="-1008164510#2" from="1515745993" to="1515745990" priority="4" type="highway.unclassified" numLanes="1" speed="13.89" disallow="tram rail_urban rail rail_electric rail_fast ship" />
    <edge id="-1008164609" from="9300949581" to="1680126283" priority="4" type="highway.unclassified" numLanes="1" speed="13.89" disallow="tram rail_urban rail rail_electric rail_fast ship" />
    <edge id="-1009960152" from="9318516046" to="6175534680" priority="11" type="highway.secondary" numLanes="1" speed="27.78" disallow="tram rail_urban rail rail_electric rail_fast ship">
        <param key="ref" value="D 12" />
    </edge>
    <edge id="-1087176578#0" from="320146655" to="893491713" priority="11" type="highway.secondary" numLanes="1" speed="13.89" disallow="tram rail_urban rail rail_electric rail_fast ship">
        <param key="ref" value="D 419" />
    </edge>
    <edge id="-1087176578#1" from="9738012139" to="320146655" priority="11" type="highway.secondary" numLanes="1" speed="13.89" disallow="tram rail_urban rail rail_electric rail_fast ship">
        <param key="ref" value="D 419" />
    </edge>
    <edge id="-1102940999" from="257393439" to="330294454" priority="12" type="highway.primary" numLanes="1" speed="13.89" disallow="tram rail_urban rail rail_electric rail_fast ship">
        <param key="ref" value="D 619" />
    </edge>
    <edge id="-1102941002" from="6175534891" to="893476912" priority="12" type="highway.primary" numLanes="1" speed="19.44" shape="3529.21,6374.64 3505.54,6399.92 3426.94,6483.64" disallow="tram rail_urban rail rail_electric rail_fast ship">
        <param key="ref" value="D 619" />
    </edge>
    <edge id="-1102941004" from="6175534910" to="893475339" priority="12" type="highway.primary" numLanes="1" speed="13.89" disallow="tram rail_urban rail rail_electric rail_fast ship">
        <param key="ref" value="D 619" />
    </edge>
    <edge id="-1160860396" from="10797055459" to="5714092135" priority="12" type="highway.primary" numLanes="1" speed="19.44" disallow="tram rail_urban rail rail_electric rail_fast ship">
        <param key="ref" value="D 619" />
    </edge>
    <edge id="-1165351178#0" from="8010499212" to="333745273" priority="11" type="highway.secondary" numLanes="1" speed="8.33" shape="3251.01,5184.65 3253.64,5188.40 3279.47,5225.57 3284.24,5232.69 3285.96,5235.28" disallow="tram rail_urban rail rail_electric rail_fast ship">
        <param key="ref" value="D 12" />
    </edge>
    <edge id="-1165351178#1" from="257392587" to="8010499212" priority="11" type="highway.secondary" numLanes="1" speed="8.33" disallow="tram rail_urban rail rail_electric rail_fast ship">
        <param key="ref" value="D 12" />
    </edge>
    <edge id="-123654790#0" from="1512162101" to="330307374" priority="3" type="highway.residential" numLanes="1" speed="13.89" shape="4618.61,5116.46 4618.60,5129.54 4618.88,5157.76 4618.46,5173.58" disallow="tram rail_urban rail rail_electric rail_fast ship" />
    <edge id="-123654790#1" from="1512162018" to="1512162101" priority="3" type="highway.residential" numLanes="1" speed="13.89" shape="4608.50,5045.83 4614.32,5068.93 4617.16,5088.53 4618.61,5116.46" disallow="tram rail_urban rail rail_electric rail_fast ship" />
    <edge id="-1338626636" from="12382427431" to="1515745900" priority="3" type="highway.residential" numLanes="1" speed="8.33" disallow="tram rail_urban rail rail_electric rail_fast ship" />
    <edge id="-1338628098" from="12382434251" to="1512177568" priority="3" type="highway.residential" numLanes="1" speed="13.89" shape="3730.26,4999.03 3740.08,5000.18 3749.25,4998.48" disallow="tram rail_urban rail rail_electric rail_fast ship" />
    <edge id="-1338628360#0" from="12382457088" to="12382457089" priority="3" type="highway.residential" numLanes="1" speed="13.89" disallow="tram rail_urban rail rail_electric rail_fast ship" />
    <edge id="-1338628360#1" from="1512177578" to="12382457088" priority="3" type="highway.residential" numLanes="1" speed="13.89" shape="3792.20,5005.95 3792.84,4999.39 3775.72,4997.31" disallow="tram rail_urban rail rail_electric rail_fast ship" />
    <edge id="-1338657754" from="12382738300" to="1512177563" priority="3" type="highway.residential" numLanes="1" speed="13.89" shape="3708.30,4961.11 3696.68,4963.12 3689.10,4971.62" disallow="tram rail_urban rail rail_electric rail_fast ship" />
    <edge id="-1338658424" from="2772675727" to="1512177531" priority="3" type="highway.residential" numLanes="1" speed="13.89" shape="3746.22,4895.27 3738.96,4884.26 3731.65,4883.15" disallow="tram rail_urban rail rail_electric rail_fast ship" />
    <edge id="-1338697409#0" from="12383031712" to="1515764395" priority="3" type="highway.residential" numLanes="1" speed="13.89" shape="3130.76,4915.41 3138.72,4917.09 3143.81,4914.55" disallow="tram rail_urban rail rail_electric rail_fast ship" />
    <edge id="-1338697409#1" from="12383031711" to="12383031712" priority="3" type="highway.residential" numLanes="1" speed="13.89" disallow="tram rail_urban rail rail_electric rail_fast ship" />
    <edge id="-1338731461" from="12383296735" to="12383296734" priority="3" type="highway.residential" numLanes="1" speed="13.89" disallow="tram rail_urban rail rail_electric rail_fast ship" />
    <edge id="-1338737972" from="12383397687" to="12383397686" priority="3" type="highway.residential" numLanes="1" speed="13.89" disallow="tram rail_urban rail rail_electric rail_fast ship" />
    <edge id="-1338885896#0" from="12384673155" to="12384673152" priority="11" type="highway.secondary" numLanes="1" speed="27.78" shape="2960.80,4729.52 2958.35,4724.78 2954.79,4721.20 2950.14,4718.85" disallow="tram rail_urban rail rail_electric rail_fast ship" />
    <edge id="-1338885896#1" from="9318515929" to="12384673155" priority="11" type="highway.secondary" numLanes="1" speed="27.78" shape="2958.26,4744.37 2960.70,4739.78 2961.58,4734.66 2960.80,4729.52" disallow="tram rail_urban rail rail_electric rail_fast ship" />
    <edge id="-1338885896#2" from="12384673141" to="9318515929" priority="11" type="highway.secondary" numLanes="1" speed="27.78" shape="2949.38,4750.36 2954.52,4747.99 2958.26,4744.37" disallow="tram rail_urban rail rail_electric rail_fast ship" />
    <edge id="-1338885896#3" from="12384673145" to="12384673141" priority="11" type="highway.secondary" numLanes="1" speed="27.78" shape="2938.25,4749.44 2943.73,4750.88 2949.38,4750.36" disallow="tram rail_urban rail rail_electric rail_fast ship" />
    <edge id="-1338885897" from="321860181" to="1515764298" priority="11" type="highway.secondary" numLanes="1" speed="25.00" shape="2642.76,5388.69 2652.03,5305.29 2663.29,5241.64 2682.87,5163.27 2709.96,5085.98 2740.80,5015.64 2779.43,4943.42 2852.06,4837.64 2900.20,4781.58" disallow="tram rail_urban rail rail_electric rail_fast ship">
        <param key="ref" value="D 201" />
    </edge>
    <edge id="-1338885898#0" from="12384673147" to="12384673145" priority="11" type="highway.secondary" numLanes="1" speed="27.78" shape="2930.27,4741.67 2933.58,4746.25 2938.25,4749.44" disallow="tram rail_urban rail rail_electric rail_fast ship" />
    <edge id="-1338885898#1" from="9318515930" to="12384673147" priority="11" type="highway.secondary" numLanes="1" speed="27.78" shape="2931.34,4725.42 2929.08,4730.60 2928.70,4736.24 2930.27,4741.67" disallow="tram rail_urban rail rail_electric rail_fast ship" />
    <edge id="-1338885898#2" from="12384673142" to="9318515930" priority="11" type="highway.secondary" numLanes="1" speed="27.78" shape="2945.00,4718.06 2939.85,4718.91 2935.24,4721.32 2931.34,4725.42" disallow="tram rail_urban rail rail_electric rail_fast ship" />
    <edge id="-1338885898#3" from="12384673152" to="12384673142" priority="11" type="highway.secondary" numLanes="1" speed="27.78" disallow="tram rail_urban rail rail_electric rail_fast ship" />
    <edge id="-1338885899" from="12384673159" to="1515764298" priority="11" type="highway.secondary" numLanes="1" speed="25.00" disallow="tram rail_urban rail rail_electric rail_fast ship">
        <param key="ref" value="D 201" />
    </edge>
    <edge id="-1339656343" from="12391834454" to="12391834453" priority="3" type="highway.residential" numLanes="1" speed="13.89" disallow="tram rail_urban rail rail_electric rail_fast ship" />
    <edge id="-1339669961" from="12392057684" to="1512177471" priority="3" type="highway.residential" numLanes="1" speed="13.89" shape="3759.27,4827.25 3756.68,4820.12 3753.40,4816.62" disallow="tram rail_urban rail rail_electric rail_fast ship" />
    <edge id="-1339670605" from="12392348591" to="12392348590" priority="3" type="highway.residential" numLanes="1" speed="13.89" disallow="tram rail_urban rail rail_electric rail_fast ship" />
    <edge id="-1339693196" from="12392528692" to="12392528691" priority="3" type="highway.residential" numLanes="1" speed="8.33" disallow="tram rail_urban rail rail_electric rail_fast ship" />
    <edge id="-1339825165" from="11286127411" to="892728799" priority="10" type="highway.tertiary" numLanes="1" speed="22.22" shape="4880.57,5235.08 4855.31,5224.97 4833.81,5220.09" disallow="tram rail_urban rail rail_electric rail_fast ship">
        <param key="ref" value="D 62" />
    </edge>
    <edge id="-1339833926" from="333755249" to="333755780" priority="3" type="highway.residential" numLanes="1" speed="13.89" disallow="tram rail_urban rail rail_electric rail_fast ship" />
    <edge id="-1339913720#0" from="9300949376" to="12394512405" priority="4" type="highway.unclassified" numLanes="1" speed="13.89" shape="4982.37,5689.16 4992.94,5687.76 4994.34,5687.57" disallow="tram rail_urban rail rail_electric rail_fast ship" />
    <edge id="-1339913720#1" from="1680126130" to="9300949376" priority="4" type="highway.unclassified" numLanes="1" speed="13.89" disallow="tram rail_urban rail rail_electric rail_fast ship" />
    <edge id="-1339919080#0" from="1512177429" to="1512177426" priority="3" type="highway.residential" numLanes="1" speed="13.89" shape="3704.22,4766.88 3708.35,4767.16 3729.09,4760.57 3734.37,4761.39" disallow="tram rail_urban rail rail_electric rail_fast ship" />
    <edge id="-1339919080#1" from="2772675567" to="1512177429" priority="3" type="highway.residential" numLanes="1" speed="13.89" disallow="tram rail_urban rail rail_electric rail_fast ship" />
    <edge id="-1340121846#0" from="429450541" to="893491088" priority="3" type="highway.residential" numLanes="1" speed="13.89" disallow="tram rail_urban rail rail_electric rail_fast ship" />
    <edge id="-1340121846#1" from="429450539" to="429450541" priority="3" type="highway.residential" numLanes="1" speed="13.89" shape="4298.23,5548.24 4301.65,5558.77 4302.51,5625.77" disallow="tram rail_urban rail rail_electric rail_fast ship" />
    <edge id="-1340134005#0" from="7197969119" to="7197969120" priority="4" type="highway.unclassified" numLanes="1" speed="13.89" shape="5075.58,6142.23 5068.76,6259.56 5173.05,6265.31 5179.99,6148.04" disallow="tram rail_urban rail rail_electric rail_fast ship" />
    <edge id="-1340134005#1" from="12396502918" to="7197969119" priority="4" type="highway.unclassified" numLanes="1" speed="13.89" shape="5144.13,5975.71 5086.63,6068.15 5083.08,6073.92 5080.71,6079.81 5079.18,6085.44 5078.55,6090.94 5075.58,6142.23" disallow="tram rail_urban rail rail_electric rail_fast ship" />
    <edge id="-1340134005#2" from="5927693302" to="12396502918" priority="4" type="highway.unclassified" numLanes="1" speed="13.89" disallow="tram rail_urban rail rail_electric rail_fast ship" />
    <edge id="-1349995301" from="2772675556" to="11286127411" priority="3" type="highway.residential" numLanes="1" speed="13.89" disallow="tram rail_urban rail rail_electric rail_fast ship" />
    <edge id="-1350016835#0" from="12488704405" to="12488704406" priority="12" type="highway.primary" numLanes="1" speed="13.89" shape="3468.06,5396.30 3487.29,5396.30 3552.38,5396.32 3568.52,5395.53 3584.67,5393.72 3604.67,5390.21" disallow="tram rail_urban rail rail_electric rail_fast ship">
        <param key="ref" value="D 408" />
    </edge>
    <edge id="-1350016835#1" from="10839349252" to="12488704405" priority="12" type="highway.primary" numLanes="1" speed="13.89" shape="3430.25,5395.83 3443.35,5396.00 3468.06,5396.30" disallow="tram rail_urban rail rail_electric rail_fast ship">
        <param key="ref" value="D 408" />
    </edge>
    <edge id="-1350016836" from="1515803088" to="10839349252" priority="12" type="highway.primary" numLanes="1" speed="8.33" shape="3389.35,5395.32 3411.26,5395.60 3430.25,5395.83" disallow="tram rail_urban rail rail_electric rail_fast ship">
        <param key="ref" value="D 408" />
    </edge>
    <edge id="-1350016837" from="7554460732" to="7554460742" priority="3" type="highway.residential" numLanes="1" speed="8.33" shape="3778.83,5792.34 3777.59,5790.71 3775.56,5789.77 3772.30,5789.03 3767.84,5788.83 3763.58,5788.19 3759.78,5786.61 3754.98,5783.61 3751.37,5782.76 3673.30,5775.35 3667.14,5774.66" disallow="tram rail_urban rail rail_electric rail_fast ship" />
    <edge id="-1351643097" from="12505171244" to="1512162125" priority="3" type="highway.residential" numLanes="1" speed="13.89" disallow="tram rail_urban rail rail_electric rail_fast ship" />
    <edge id="-1351657493#0" from="390517763" to="2427285750" priority="11" type="highway.secondary" numLanes="1" speed="19.44" disallow="tram rail_urban rail rail_electric rail_fast ship">
        <param key="ref" value="D 201" />
    </edge>
    <edge id="-1351657493#1" from="2906889195" to="390517763" priority="11" type="highway.secondary" numLanes="1" speed="19.44" disallow="tram rail_urban rail rail_electric rail_fast ship">
        <param key="ref" value="D 201" />
    </edge>
    <edge id="-1351657493#2" from="12505354710" to="2906889195" priority="11" type="highway.secondary" numLanes="1" speed="19.44" shape="3973.74,4347.33 3993.37,4331.82 4024.65,4298.31" disallow="tram rail_urban rail rail_electric rail_fast ship">
        <param key="ref" value="D 201" />
    </edge>
    <edge id="-1359538743" from="6175534921" to="6175534916" priority="12" type="highway.primary" numLanes="1" speed="22.22" shape="2585.93,7376.55 2617.12,7342.89 2773.15,7177.93 2868.16,7078.19 2973.86,6965.88 2989.09,6949.77 3195.47,6728.23" disallow="tram rail_urban rail rail_electric rail_fast ship">
        <param key="ref" value="D 619" />
    </edge>
    <edge id="-1373790083" from="12719407064" to="1512177545" priority="3" type="highway.residential" numLanes="1" speed="13.89" shape="3642.12,4903.17 3649.45,4908.24 3657.91,4911.04" disallow="tram rail_urban rail rail_electric rail_fast ship" />
    <edge id="-1373790084" from="12719407066" to="12719407067" priority="3" type="highway.residential" numLanes="1" speed="13.89" shape="3608.15,5100.21 3592.22,5100.70 3588.25,5097.90" disallow="tram rail_urban rail rail_electric rail_fast ship" />
    <edge id="-1373830881#0" from="12719672883" to="12719672884" priority="3" type="highway.residential" numLanes="1" speed="13.89" shape="3610.76,4755.92 3608.74,4757.66 3607.38,4759.95 3606.84,4762.56 3607.17,4765.19" disallow="tram rail_urban rail rail_electric rail_fast ship" />
    <edge id="-1373830881#1" from="964710665" to="12719672883" priority="3" type="highway.residential" numLanes="1" speed="13.89" shape="3620.66,4757.05 3618.47,4755.53 3615.90,4754.80 3613.24,4754.93 3610.76,4755.92" disallow="tram rail_urban rail rail_electric rail_fast ship" />
    <edge id="-1373830881#2" from="12719672882" to="964710665" priority="3" type="highway.residential" numLanes="1" speed="13.89" shape="3622.97,4764.46 3623.05,4761.76 3622.24,4759.19 3620.66,4757.05" disallow="tram rail_urban rail rail_electric rail_fast ship" />
    <edge id="-1373830881#3" from="12719672881" to="12719672882" priority="3" type="highway.residential" numLanes="1" speed="13.89" disallow="tram rail_urban rail rail_electric rail_fast ship" />
    <edge id="-1373830881#4" from="12719672880" to="12719672881" priority="3" type="highway.residential" numLanes="1" speed="13.89" shape="3612.62,4770.65 3615.30,4770.99 3617.95,4770.44 3620.27,4769.05 3622.01,4766.98" disallow="tram rail_urban rail rail_electric rail_fast ship" />
    <edge id="-1373830881#5" from="12719672879" to="12719672880" priority="3" type="highway.residential" numLanes="1" speed="13.89" disallow="tram rail_urban rail rail_electric rail_fast ship" />
    <edge id="-1373830881#6" from="12719672884" to="12719672879" priority="3" type="highway.residential" numLanes="1" speed="13.89" shape="3607.17,4765.19 3608.34,4767.58 3610.23,4769.47" disallow="tram rail_urban rail rail_electric rail_fast ship" />
    <edge id="-137901136" from="330315439" to="11286127411" priority="10" type="highway.tertiary" numLanes="1" speed="22.22" shape="7090.48,4909.80 7073.15,4915.78 7060.72,4918.87 6929.19,4944.11 6905.95,4947.89 6876.53,4950.84 6740.59,4958.09 6703.76,4961.50 6615.87,4972.94 6554.33,4977.76 6331.50,4989.79 6235.57,4994.77 6200.64,4998.19 6163.41,5005.91 6087.60,5028.41 6051.73,5037.29 5995.38,5045.44 5962.01,5052.42 5915.62,5069.71 5892.55,5076.77 5840.80,5088.38 5807.80,5097.93 5740.35,5122.26 5712.55,5137.61 5677.83,5168.45 5661.95,5180.04 5642.62,5188.26 5636.99,5189.82 5619.86,5193.13 5451.43,5209.67 5405.86,5218.43 5361.05,5230.38 5271.30,5253.43 5153.64,5267.45 5101.15,5268.28 4948.62,5257.18 4933.13,5254.71 4918.88,5250.75 4903.26,5244.92 4880.57,5235.08" disallow="tram rail_urban rail rail_electric rail_fast ship">
        <param key="ref" value="D 62" />
    </edge>
    <edge id="-137901143" from="333740942" to="1512162067" priority="3" type="highway.residential" numLanes="1" speed="13.89" shape="4448.53,5037.39 4449.85,5043.51 4451.24,5049.02 4449.37,5083.23 4452.33,5090.55 4459.21,5096.01 4467.14,5099.17 4475.98,5098.80 4483.11,5095.98 4489.10,5090.84 4494.52,5089.00 4558.96,5090.42" disallow="tram rail_urban rail rail_electric rail_fast ship" />
    <edge id="-137901144#0" from="9739791356" to="1512162018" priority="3" type="highway.residential" numLanes="1" speed="13.89" shape="4559.42,5045.99 4562.10,5045.04 4570.96,5045.24 4577.03,5047.43 4600.65,5047.70 4608.50,5045.83" disallow="tram rail_urban rail rail_electric rail_fast ship" />
    <edge id="-137901144#1" from="1512162067" to="9739791356" priority="3" type="highway.residential" numLanes="1" speed="13.89" shape="4558.96,5090.42 4559.06,5064.26 4558.13,5060.07 4556.00,5056.66 4555.01,5052.88 4556.04,5048.97 4558.61,5046.28 4559.42,5045.99" disallow="tram rail_urban rail rail_electric rail_fast ship" />
    <edge id="-137901144#2" from="9739791358" to="1512162067" priority="3" type="highway.residential" numLanes="1" speed="13.89" shape="4569.57,5116.17 4566.42,5115.34 4561.04,5110.92 4559.20,5107.61 4558.96,5090.42" disallow="tram rail_urban rail rail_electric rail_fast ship" />
    <edge id="-137901144#3" from="1512162101" to="9739791358" priority="3" type="highway.residential" numLanes="1" speed="13.89" shape="4618.61,5116.46 4575.41,5116.45 4569.57,5116.17" disallow="tram rail_urban rail rail_electric rail_fast ship" />
    <edge id="-137901154#0" from="1512162125" to="1512162105" priority="3" type="highway.residential" numLanes="1" speed="13.89" disallow="tram rail_urban rail rail_electric rail_fast ship" />
    <edge id="-137901154#1" from="2772675649" to="1512162125" priority="3" type="highway.residential" numLanes="1" speed="13.89" shape="4341.54,5212.76 4352.92,5210.64 4353.00,5196.49 4351.14,5190.75" disallow="tram rail_urban rail rail_electric rail_fast ship" />
    <edge id="-137901163#0" from="1512162105" to="1512162104" priority="3" type="highway.residential" numLanes="1" speed="13.89" disallow="tram rail_urban rail rail_electric rail_fast ship" />
    <edge id="-137901163#1" from="1512162103" to="1512162105" priority="3" type="highway.residential" numLanes="1" speed="13.89" disallow="tram rail_urban rail rail_electric rail_fast ship" />
    <edge id="-137901164#0" from="1512161981" to="333740940" priority="3" type="highway.residential" numLanes="1" speed="13.89" disallow="tram rail_urban rail rail_electric rail_fast ship" />
    <edge id="-137901164#1" from="1512162033" to="1512161981" priority="3" type="highway.residential" numLanes="1" speed="13.89" disallow="tram rail_urban rail rail_electric rail_fast ship" />
    <edge id="-137901190#0" from="1512161672" to="1512161598" priority="3" type="highway.residential" numLanes="1" speed="13.89" shape="4285.27,4789.48 4285.41,4779.37 4285.56,4768.14 4285.90,4744.23 4286.05,4733.08 4280.51,4719.83" disallow="tram rail_urban rail rail_electric rail_fast ship" />
    <edge id="-137901190#1" from="1512161694" to="1512161672" priority="3" type="highway.residential" numLanes="1" speed="13.89" disallow="tram rail_urban rail rail_electric rail_fast ship" />
    <edge id="-137901190#2" from="1512161790" to="1512161694" priority="3" type="highway.residential" numLanes="1" speed="13.89" shape="4284.17,4869.46 4284.24,4864.10 4285.17,4796.73" disallow="tram rail_urban rail rail_electric rail_fast ship" />
    <edge id="-137901191#0" from="1512161762" to="1512161726" priority="3" type="highway.residential" numLanes="1" speed="13.89" shape="4544.91,4847.40 4551.78,4836.65 4560.84,4832.29 4574.59,4832.29" disallow="tram rail_urban rail rail_electric rail_fast ship" />
    <edge id="-137901191#1" from="1512161760" to="1512161762" priority="3" type="highway.residential" numLanes="1" speed="13.89" shape="4499.39,4846.55 4505.26,4846.90 4544.91,4847.40" disallow="tram rail_urban rail rail_electric rail_fast ship" />
    <edge id="-137901196" from="1512162178" to="1512162129" priority="3" type="highway.residential" numLanes="1" speed="13.89" shape="4489.97,5269.54 4485.57,5251.79 4488.23,5225.47 4484.82,5199.01" disallow="tram rail_urban rail rail_electric rail_fast ship" />
    <edge id="-137901200" from="1512161857" to="1512161782" priority="3" type="highway.residential" numLanes="1" speed="13.89" shape="4578.99,4920.39 4586.76,4911.28 4586.61,4901.47 4582.23,4888.85 4582.24,4867.04 4575.25,4866.57" disallow="tram rail_urban rail rail_electric rail_fast ship" />
    <edge id="-137901204#0" from="1512161715" to="1512161728" priority="3" type="highway.residential" numLanes="1" speed="13.89" shape="4440.53,4828.72 4443.86,4831.72 4496.79,4832.38" disallow="tram rail_urban rail rail_electric rail_fast ship" />
    <edge id="-137901204#1" from="2772675624" to="1512161715" priority="3" type="highway.residential" numLanes="1" speed="13.89" shape="4372.92,4785.87 4435.78,4787.13 4440.47,4789.89 4440.65,4822.42 4440.53,4828.72" disallow="tram rail_urban rail rail_electric rail_fast ship" />
    <edge id="-137901204#2" from="2772675846" to="2772675624" priority="3" type="highway.residential" numLanes="1" speed="13.89" shape="4338.11,4786.37 4342.30,4785.36 4372.92,4785.87" disallow="tram rail_urban rail rail_electric rail_fast ship" />
    <edge id="-137901204#3" from="1512161674" to="2772675846" priority="3" type="highway.residential" numLanes="1" speed="13.89" disallow="tram rail_urban rail rail_electric rail_fast ship" />
    <edge id="-137901204#4" from="2772675745" to="1512161674" priority="3" type="highway.residential" numLanes="1" speed="13.89" disallow="tram rail_urban rail rail_electric rail_fast ship" />
    <edge id="-137901204#5" from="2772675740" to="2772675745" priority="3" type="highway.residential" numLanes="1" speed="13.89" disallow="tram rail_urban rail rail_electric rail_fast ship" />
    <edge id="-137901204#6" from="1512161672" to="2772675740" priority="3" type="highway.residential" numLanes="1" speed="13.89" disallow="tram rail_urban rail rail_electric rail_fast ship" />
    <edge id="-137901205#0" from="1512161966" to="2772675762" priority="3" type="highway.residential" numLanes="1" speed="13.89" shape="4365.69,5024.97 4372.64,5030.56 4387.08,5041.74 4394.51,5048.29" disallow="tram rail_urban rail rail_electric rail_fast ship" />
    <edge id="-137901205#1" from="1512161905" to="1512161966" priority="3" type="highway.residential" numLanes="1" speed="13.89" shape="4355.85,4950.04 4355.63,4960.16 4355.34,5010.36 4357.67,5018.08 4365.69,5024.97" disallow="tram rail_urban rail rail_electric rail_fast ship" />
    <edge id="-137901205#2" from="1512161842" to="1512161905" priority="3" type="highway.residential" numLanes="1" speed="13.89" disallow="tram rail_urban rail rail_electric rail_fast ship" />
    <edge id="-137902318" from="1512177347" to="1512177303" priority="3" type="highway.residential" numLanes="1" speed="13.89" disallow="tram rail_urban rail rail_electric rail_fast ship" />
    <edge id="-137902323" from="1512177208" to="333742681" priority="3" type="highway.residential" numLanes="1" speed="13.89" disallow="tram rail_urban rail rail_electric rail_fast ship" />
    <edge id="-137902325#0" from="1512177288" to="1512177299" priority="3" type="highway.residential" numLanes="1" speed="13.89" disallow="tram rail_urban rail rail_electric rail_fast ship" />
    <edge id="-137902325#1" from="1512177283" to="1512177288" priority="3" type="highway.residential" numLanes="1" speed="13.89" disallow="tram rail_urban rail rail_electric rail_fast ship" />
    <edge id="-137902329#0" from="1512177218" to="2772675871" priority="3" type="highway.residential" numLanes="1" speed="13.89" disallow="tram rail_urban rail rail_electric rail_fast ship" />
    <edge id="-137902329#1" from="2772675823" to="1512177218" priority="3" type="highway.residential" numLanes="1" speed="13.89" disallow="tram rail_urban rail rail_electric rail_fast ship" />
    <edge id="-137902331" from="1512177334" to="2772675653" priority="3" type="highway.residential" numLanes="1" speed="13.89" disallow="tram rail_urban rail rail_electric rail_fast ship" />
    <edge id="-137902332" from="1512177242" to="1512177280" priority="3" type="highway.residential" numLanes="1" speed="13.89" shape="4042.03,4574.05 4044.72,4583.16 4045.82,4610.04" disallow="tram rail_urban rail rail_electric rail_fast ship" />
    <edge id="-137902335" from="1512177301" to="2772675653" priority="3" type="highway.residential" numLanes="1" speed="13.89" shape="3739.27,4637.26 3753.79,4632.79 3763.87,4664.59" disallow="tram rail_urban rail rail_electric rail_fast ship" />
    <edge id="-137902337" from="1512177228" to="1512177214" priority="3" type="highway.residential" numLanes="1" speed="13.89" shape="4147.69,4545.72 4134.67,4545.43 4134.82,4533.49 4138.56,4527.66" disallow="tram rail_urban rail rail_electric rail_fast ship" />
    <edge id="-137902340" from="1512177369" to="1512177322" priority="3" type="highway.residential" numLanes="1" speed="13.89" shape="4129.69,4679.41 4119.37,4679.25 4119.67,4666.87 4123.71,4660.60" disallow="tram rail_urban rail rail_electric rail_fast ship" />
    <edge id="-137902344#0" from="12396713075" to="1512177387" priority="3" type="highway.residential" numLanes="1" speed="13.89" shape="4309.36,4623.24 4308.74,4655.77 4307.15,4662.51 4293.16,4666.50 4293.09,4711.29 4292.59,4716.42" disallow="tram rail_urban rail rail_electric rail_fast ship" />
    <edge id="-137902344#1" from="1512177288" to="12396713075" priority="3" type="highway.residential" numLanes="1" speed="13.89" shape="4266.19,4618.56 4309.44,4619.02 4309.36,4623.24" disallow="tram rail_urban rail rail_electric rail_fast ship" />
    <edge id="-137902345#0" from="1512177256" to="1512177242" priority="3" type="highway.residential" numLanes="1" speed="13.89" disallow="tram rail_urban rail rail_electric rail_fast ship" />
    <edge id="-137902345#1" from="1512177293" to="1512177256" priority="3" type="highway.residential" numLanes="1" speed="13.89" shape="3971.27,4619.02 3972.46,4610.29 3973.91,4601.90 3976.39,4596.09 3980.97,4592.69 3989.51,4590.08" disallow="tram rail_urban rail rail_electric rail_fast ship" />
    <edge id="-137902346#0" from="1512177545" to="1512177529" priority="3" type="highway.residential" numLanes="1" speed="13.89" shape="3657.91,4911.04 3660.08,4900.14 3687.56,4881.73" disallow="tram rail_urban rail rail_electric rail_fast ship" />
    <edge id="-137902346#1" from="1512177563" to="1512177545" priority="3" type="highway.residential" numLanes="1" speed="13.89" shape="3689.10,4971.62 3676.98,4960.27 3675.57,4932.39 3671.26,4925.27 3665.35,4923.13 3657.91,4911.04" disallow="tram rail_urban rail rail_electric rail_fast ship" />
    <edge id="-137902346#2" from="1512177583" to="1512177563" priority="3" type="highway.residential" numLanes="1" speed="13.89" disallow="tram rail_urban rail rail_electric rail_fast ship" />
    <edge id="-137902352#0" from="1512177322" to="1512177326" priority="3" type="highway.residential" numLanes="1" speed="13.89" shape="4123.71,4660.60 4129.40,4663.14 4212.25,4663.31 4217.69,4662.76" disallow="tram rail_urban rail rail_electric rail_fast ship" />
    <edge id="-137902352#1" from="1512177258" to="1512177322" priority="3" type="highway.residential" numLanes="1" speed="13.89" shape="4209.66,4593.44 4202.77,4594.05 4128.37,4593.47 4123.13,4596.74 4121.03,4602.86 4120.73,4654.79 4123.71,4660.60" disallow="tram rail_urban rail rail_electric rail_fast ship" />