<edges xmlns:xsi="http://www.w3.org/2001/XMLSchema-instance" version="1.16" xsi:noNamespaceSchemaLocation="http://sumo.dlr.de/xsd/edges_file.xsd">
    <location netOffset="-470192.62,-5340701.09" convBoundary="0.00,0.00,12786.96,9104.74" origBoundary="2.598471,48.184141,2.770727,48.300901" projParameter="+proj=utm +zone=31 +ellps=WGS84 +datum=WGS84 +units=m +no_defs" />

    <edge id="-1016223781" from="311214763" to="7024824463" priority="11" type="highway.secondary" numLanes="1" speed="27.78" shape="7666.22,2452.64 7661.13,2467.22 7653.85,2488.32 7627.89,2560.75 7619.31,2582.52 7609.96,2604.74 7593.08,2641.95 7569.28,2687.26 7554.19,2711.83 7540.79,2732.78 7531.00,2748.55 7521.87,2762.79 7510.50,2780.30 7481.43,2825.90 7424.86,2915.69 7415.37,2932.40 7409.84,2945.14 7399.79,2972.20 7399.20,2973.27 7390.82,2996.13 7379.70,3028.63 7339.82,3143.06 7317.62,3205.72 7310.69,3225.41 7258.75,3373.05 7256.05,3381.17 7250.82,3394.83 7245.25,3409.15 7235.74,3434.30 7212.70,3496.26 7208.66,3507.56" disallow="tram rail_urban rail rail_electric rail_fast ship">
        <param key="ref" value="D 40" />
    </edge>
    <edge id="-1062609830#0" from="10274075493" to="9761804779" priority="3" type="highway.residential" numLanes="1" speed="13.89" shape="8021.77,5648.62 8008.35,5680.41 7992.06,5719.16 7985.66,5726.91" disallow="tram rail_urban rail rail_electric rail_fast ship" />
    <edge id="-1062609830#1" from="10274075479" to="10274075493" priority="3" type="highway.residential" numLanes="1" speed="13.89" disallow="tram rail_urban rail rail_electric rail_fast ship" />
    <edge id="-1062609830#2" from="10274075490" to="10274075479" priority="3" type="highway.residential" numLanes="1" speed="13.89" disallow="tram rail_urban rail rail_electric rail_fast ship" />
    <edge id="-1062609830#3" from="10274075480" to="10274075490" priority="3" type="highway.residential" numLanes="1" speed="13.89" shape="8030.04,5579.73 8029.92,5588.34 8027.91,5622.76" disallow="tram rail_urban rail rail_electric rail_fast ship" />
    <edge id="-1062609832" from="9761804782" to="9761804787" priority="3" type="highway.residential" numLanes="1" speed="13.89" shape="6743.77,5828.06 6742.02,5839.38 6771.89,5845.22 6763.13,5893.67 6704.58,5882.99 6651.34,5877.48" disallow="tram rail_urban rail rail_electric rail_fast ship" />
    <edge id="-1062609834" from="9761804790" to="9761804791" priority="3" type="highway.residential" numLanes="1" speed="13.89" disallow="tram rail_urban rail rail_electric rail_fast ship" />
    <edge id="-1078856745" from="251300156" to="1796119108" priority="11" type="highway.secondary" numLanes="1" speed="27.78" disallow="tram rail_urban rail rail_electric rail_fast ship">
        <param key="ref" value="D 16" />
    </edge>
    <edge id="-1078856750" from="1542592756" to="2581589251" priority="4" type="highway.unclassified" numLanes="1" speed="13.89" disallow="tram rail_urban rail rail_electric rail_fast ship" />
    <edge id="-1089477908#0" from="8123536152" to="3904274061" priority="3" type="highway.residential" numLanes="1" speed="13.89" shape="6890.64,5510.28 6885.70,5508.28 6853.28,5502.94" disallow="tram rail_urban rail rail_electric rail_fast ship" />
    <edge id="-1089477908#1" from="3904274435" to="8123536152" priority="3" type="highway.residential" numLanes="1" speed="13.89" disallow="tram rail_urban rail rail_electric rail_fast ship" />
    <edge id="-1089477908#2" from="661726504" to="3904274435" priority="3" type="highway.residential" numLanes="1" speed="13.89" disallow="tram rail_urban rail rail_electric rail_fast ship" />
    <edge id="-1104523974" from="1796119438" to="9890121237" priority="10" type="highway.tertiary" numLanes="1" speed="22.22" shape="6488.77,5198.47 6487.74,5211.35 6487.78,5213.92" disallow="tram rail_urban rail rail_electric rail_fast ship">
        <param key="ref" value="D 98" />
    </edge>
    <edge id="-1104526781#0" from="251300166" to="9761804791" priority="10" type="highway.tertiary" numLanes="1" speed="22.22" shape="6803.95,4809.43 6796.80,4825.68 6790.81,4838.56 6788.56,4842.65 6762.08,4899.80 6748.50,4928.70 6735.79,4952.87 6719.95,4978.44 6695.86,5007.98 6684.50,5019.42 6681.63,5022.10 6670.02,5031.81 6658.69,5041.71 6608.30,5074.86 6559.84,5105.78" disallow="tram rail_urban rail rail_electric rail_fast ship">
        <param key="ref" value="D 98" />
    </edge>
    <edge id="-1104526781#1" from="1542723000" to="251300166" priority="10" type="highway.tertiary" numLanes="1" speed="22.22" disallow="tram rail_urban rail rail_electric rail_fast ship">
        <param key="ref" value="D 98" />
    </edge>
    <edge id="-1104526785#0" from="1542592851" to="270773579" priority="4" type="highway.unclassified" numLanes="1" speed="13.89" shape="6162.15,5938.13 6165.81,5930.71 6171.17,5917.19 6176.54,5903.68 6181.90,5890.16 6186.78,5879.08 6193.35,5861.72" disallow="tram rail_urban rail rail_electric rail_fast ship" />
    <edge id="-1125756489" from="2960148092" to="2960148106" priority="3" type="highway.residential" numLanes="1" speed="13.89" disallow="tram rail_urban rail rail_electric rail_fast ship" />
    <edge id="-1125801451" from="10294829808" to="2918463658" priority="3" type="highway.residential" numLanes="1" speed="13.89" disallow="tram rail_urban rail rail_electric rail_fast ship" />
    <edge id="-1126987416#0" from="3259187478" to="2162599858" priority="3" type="highway.residential" numLanes="1" speed="13.89" shape="7082.86,3119.48 7078.17,3108.07 7065.77,3092.65 7036.62,3066.27 7000.88,3038.54 6986.68,3020.55 6976.82,2993.11 6970.95,2969.12" disallow="tram rail_urban rail rail_electric rail_fast ship" />
    <edge id="-1126987416#1" from="649666613" to="3259187478" priority="3" type="highway.residential" numLanes="1" speed="13.89" shape="7088.11,3149.49 7087.93,3141.38 7086.83,3133.52 7082.86,3119.48" disallow="tram rail_urban rail rail_electric rail_fast ship" />
    <edge id="-1126987417" from="2162600010" to="2162599991" priority="4" type="highway.unclassified" numLanes="1" speed="13.89" shape="7083.63,3589.02 7081.87,3576.77 7085.43,3543.87" disallow="tram rail_urban rail rail_electric rail_fast ship" />
    <edge id="-1130961584" from="2960148072" to="661726433" priority="10" type="highway.tertiary" numLanes="1" speed="22.22" shape="6445.49,5947.37 6447.40,5948.02 6453.59,5949.50 6646.72,6000.46 6659.58,6003.85" disallow="tram rail_urban rail rail_electric rail_fast ship" />
    <edge id="-1130961585" from="5882198827" to="661098804" priority="3" type="highway.residential" numLanes="1" speed="13.89" disallow="tram rail_urban rail rail_electric rail_fast ship" />
    <edge id="-1130961587#0" from="661098815" to="5882198827" priority="3" type="highway.residential" numLanes="1" speed="13.89" shape="7767.38,3643.29 7756.12,3622.90 7742.25,3611.60 7721.70,3605.06 7703.64,3601.11 7695.94,3600.31" disallow="tram rail_urban rail rail_electric rail_fast ship" />
    <edge id="-1130961587#1" from="661098934" to="661098815" priority="3" type="highway.residential" numLanes="1" speed="13.89" disallow="tram rail_urban rail rail_electric rail_fast ship" />
    <edge id="-1130961588" from="650849404" to="271035158" priority="10" type="highway.tertiary" numLanes="1" speed="13.89" shape="8171.72,4886.18 8159.80,4892.10 8156.55,4894.00 8116.59,4914.90" disallow="tram rail_urban rail rail_electric rail_fast ship">
        <param key="ref" value="D 225" />
    </edge>
    <edge id="-1160463763" from="8037346200" to="10792993153" priority="11" type="highway.secondary" numLanes="1" speed="13.89" disallow="tram rail_urban rail rail_electric rail_fast ship">
        <param key="ref" value="D 403" />
    </edge>
    <edge id="-1160463765" from="10792993168" to="3247773267" priority="11" type="highway.secondary" numLanes="1" speed="13.89" disallow="tram rail_urban rail rail_electric rail_fast ship">
        <param key="ref" value="D 403" />
    </edge>
    <edge id="-1160463766#0" from="3246566595" to="10792993164" priority="11" type="highway.secondary" numLanes="1" speed="13.89" shape="8065.80,5305.29 8054.06,5305.43 8046.24,5305.53 8038.85,5306.02 8010.45,5308.70" disallow="tram rail_urban rail rail_electric rail_fast ship">
        <param key="ref" value="D 403" />
    </edge>
    <edge id="-1160463766#1" from="10792993167" to="3246566595" priority="11" type="highway.secondary" numLanes="1" speed="13.89" disallow="tram rail_urban rail rail_electric rail_fast ship">
        <param key="ref" value="D 403" />
    </edge>
    <edge id="-1160463768" from="8037246251" to="10792993163" priority="11" type="highway.secondary" numLanes="1" speed="13.89" disallow="tram rail_urban rail rail_electric rail_fast ship">
        <param key="ref" value="D 403" />
    </edge>
    <edge id="-1160463770#0" from="2857042306" to="1882040640" priority="11" type="highway.secondary" numLanes="1" speed="13.89" disallow="tram rail_urban rail rail_electric rail_fast ship">
        <param key="ref" value="D 403" />
    </edge>
    <edge id="-1160463770#1" from="10792993070" to="2857042306" priority="11" type="highway.secondary" numLanes="1" speed="13.89" shape="7821.29,5363.78 7819.22,5364.72 7806.50,5370.42" disallow="tram rail_urban rail rail_electric rail_fast ship">
        <param key="ref" value="D 403" />
    </edge>
    <edge id="-1160463770#2" from="3267554664" to="10792993070" priority="11" type="highway.secondary" numLanes="1" speed="13.89" disallow="tram rail_urban rail rail_electric rail_fast ship">
        <param key="ref" value="D 403" />
    </edge>
    <edge id="-1160463770#3" from="8037094962" to="3267554664" priority="11" type="highway.secondary" numLanes="1" speed="13.89" shape="7881.22,5336.65 7860.82,5345.83 7858.49,5346.88" disallow="tram rail_urban rail rail_electric rail_fast ship">
        <param key="ref" value="D 403" />
    </edge>
    <edge id="-116829586" from="1316186403" to="1316186428" priority="3" type="highway.residential" numLanes="1" speed="13.89" shape="7248.12,5405.03 7211.16,5402.43 7213.76,5357.11 7214.21,5348.48" disallow="tram rail_urban rail rail_electric rail_fast ship" />
    <edge id="-116829593" from="4420396131" to="661726406" priority="3" type="highway.residential" numLanes="1" speed="13.89" shape="6677.44,5298.84 6676.74,5303.37 6676.82,5304.88 6679.24,5335.95 6682.09,5355.23 6686.43,5375.20 6692.94,5396.74 6721.95,5475.43 6735.96,5510.98 6745.57,5527.76 6784.27,5586.06 6808.19,5624.53 6832.02,5665.94 6875.99,5740.46 6892.17,5765.10 6911.43,5783.62" disallow="tram rail_urban rail rail_electric rail_fast ship" />
    <edge id="-116829594#0" from="1942598798" to="661726453" priority="3" type="highway.residential" numLanes="1" speed="13.89" disallow="tram rail_urban rail rail_electric rail_fast ship" />
    <edge id="-116829594#1" from="1316186370" to="1942598798" priority="3" type="highway.residential" numLanes="1" speed="13.89" shape="6924.58,5163.09 6925.14,5160.73 6942.17,5087.28" disallow="tram rail_urban rail rail_electric rail_fast ship" />
    <edge id="-116829594#2" from="240058276" to="1316186370" priority="3" type="highway.residential" numLanes="1" speed="13.89" shape="6891.01,5316.23 6891.36,5312.99 6891.64,5310.78 6923.96,5165.95 6924.58,5163.09" disallow="tram rail_urban rail rail_electric rail_fast ship" />
    <edge id="-116829595" from="2401214232" to="1316186461" priority="10" type="highway.tertiary" numLanes="1" speed="22.22" disallow="tram rail_urban rail rail_electric rail_fast ship" />
    <edge id="-116829600#0" from="8123461150" to="240058276" priority="3" type="highway.residential" numLanes="1" speed="13.89" shape="6870.93,5371.52 6885.71,5343.48 6889.83,5323.21 6890.15,5321.43 6891.01,5316.23" disallow="tram rail_urban rail rail_electric rail_fast ship" />
    <edge id="-116829600#1" from="1316186466" to="8123461150" priority="3" type="highway.residential" numLanes="1" speed="13.89" shape="6819.46,5512.52 6834.30,5462.84 6854.43,5402.81 6870.93,5371.52" disallow="tram rail_urban rail rail_electric rail_fast ship" />
    <edge id="-116829605#0" from="661726453" to="10300959643" priority="3" type="highway.residential" numLanes="1" speed="13.89" disallow="tram rail_urban rail rail_electric rail_fast ship" />
    <edge id="-116829605#1" from="1942598751" to="661726453" priority="3" type="highway.residential" numLanes="1" speed="13.89" disallow="tram rail_urban rail rail_electric rail_fast ship" />
    <edge id="-1178768426" from="270773578" to="1796119160" priority="4" type="highway.unclassified" numLanes="1" speed="13.89" disallow="tram rail_urban rail rail_electric rail_fast ship" />
    <edge id="-1178768427#0" from="1796119306" to="270773578" priority="4" type="highway.unclassified" numLanes="1" speed="13.89" shape="6084.67,5789.26 6089.95,5795.43 6114.51,5819.12" disallow="tram rail_urban rail rail_electric rail_fast ship" />
    <edge id="-1178768427#1" from="1796119163" to="1796119306" priority="4" type="highway.unclassified" numLanes="1" speed="13.89" disallow="tram rail_urban rail rail_electric rail_fast ship" />
    <edge id="-1178768427#2" from="6900282066" to="1796119163" priority="4" type="highway.unclassified" numLanes="1" speed="13.89" shape="5993.13,5706.89 6010.02,5716.99 6036.37,5736.75 6055.98,5755.71 6059.03,5759.27" disallow="tram rail_urban rail rail_electric rail_fast ship" />
    <edge id="-1178768427#3" from="270773575" to="6900282066" priority="4" type="highway.unclassified" numLanes="1" speed="13.89" shape="5937.29,5680.35 5947.77,5683.91 5979.09,5698.50 5993.13,5706.89" disallow="tram rail_urban rail rail_electric rail_fast ship" />
    <edge id="-1183400432" from="2960148070" to="661726386" priority="3" type="highway.residential" numLanes="1" speed="13.89" shape="6625.40,5478.26 6625.63,5481.37 6626.44,5492.51 6628.49,5517.16" disallow="tram rail_urban rail rail_electric rail_fast ship" />
    <edge id="-1239834276" from="11518519021" to="2918648684" priority="3" type="highway.residential" numLanes="1" speed="13.89" shape="7846.28,4042.54 7839.99,4037.61 7835.11,4034.99" disallow="tram rail_urban rail rail_electric rail_fast ship" />
    <edge id="-1239834277" from="11518519025" to="11518519027" priority="3" type="highway.residential" numLanes="1" speed="13.89" shape="7946.56,4078.03 7925.60,4088.14 7921.99,4089.60" disallow="tram rail_urban rail rail_electric rail_fast ship" />
    <edge id="-1265060065" from="251319979" to="3247743589" priority="12" type="highway.primary" numLanes="1" speed="8.33" shape="8336.10,5080.75 8394.91,5101.69 8482.19,5131.99 8502.43,5137.31" disallow="tram rail_urban rail rail_electric rail_fast ship">
        <param key="ref" value="D 225A" />
    </edge>
    <edge id="-1265060066" from="3247743589" to="251319972" priority="12" type="highway.primary" numLanes="1" speed="27.78" disallow="tram rail_urban rail rail_electric rail_fast ship">
        <param key="ref" value="D 225A" />
    </edge>
    <edge id="-1265060720#2" from="1316186433" to="251300242" priority="12" type="highway.primary" numLanes="1" speed="13.89" shape="6983.44,5326.38 7004.27,5328.69 7006.37,5329.00 7016.09,5330.18" disallow="tram rail_urban rail rail_electric rail_fast ship">
        <param key="ref" value="D 607" />
    </edge>
    <edge id="-129506898" from="1428760023" to="1428759800" priority="4" type="highway.unclassified" numLanes="1" speed="13.89" shape="3552.06,4853.40 3473.38,4714.82 3398.74,4588.14 3373.88,4550.15 3332.96,4484.44 3310.46,4440.88 3303.68,4420.37" disallow="tram rail_urban rail rail_electric rail_fast ship" />
    <edge id="-129506899#0" from="1428759849" to="1428760016" priority="10" type="highway.tertiary" numLanes="1" speed="22.22" disallow="tram rail_urban rail rail_electric rail_fast ship" />
    <edge id="-129506899#1" from="10305093764" to="1428759849" priority="10" type="highway.tertiary" numLanes="1" speed="22.22" shape="4083.91,4793.40 4081.34,4801.76 4067.59,4841.71" disallow="tram rail_urban rail rail_electric rail_fast ship" />
    <edge id="-129506900#0" from="1428964799" to="1428965929" priority="11" type="highway.secondary" numLanes="1" speed="22.22" shape="3244.86,3811.42 3189.59,3794.34 3045.25,3753.72 2791.91,3683.25 2664.02,3651.09 2634.25,3642.45 2623.11,3638.36 2608.55,3632.87 2584.11,3623.06 2518.25,3593.77 2512.53,3591.16 2423.78,3553.36 2380.31,3532.76 2310.13,3499.51 2228.89,3457.32 2206.23,3446.61 2159.47,3432.65 2107.05,3421.28 2064.29,3409.78 2047.83,3403.80 2029.97,3395.25 2012.39,3384.62 1885.28,3296.93 1865.66,3282.29 1658.27,3133.66" disallow="tram rail_urban rail rail_electric rail_fast ship">
        <param key="ref" value="D 98" />
    </edge>
    <edge id="-129506900#1" from="1428759865" to="1428964799" priority="11" type="highway.secondary" numLanes="1" speed="22.22" shape="3282.91,3824.87 3262.96,3817.01 3244.86,3811.42" disallow="tram rail_urban rail rail_electric rail_fast ship">
        <param key="ref" value="D 98" />
    </edge>
    <edge id="-129506900#2" from="10309142199" to="1428759865" priority="11" type="highway.secondary" numLanes="1" speed="22.22" shape="3504.09,3924.45 3471.97,3909.71 3353.93,3854.71 3282.91,3824.87" disallow="tram rail_urban rail rail_electric rail_fast ship">
        <param key="ref" value="D 98" />
    </edge>
    <edge id="-129506900#3" from="1428762111" to="10309142199" priority="11" type="highway.secondary" numLanes="1" speed="22.22" shape="3794.34,4023.34 3544.18,3940.35 3504.09,3924.45" disallow="tram rail_urban rail rail_electric rail_fast ship">
        <param key="ref" value="D 98" />
    </edge>
    <edge id="-129506900#4" from="2882091048" to="1428762111" priority="11" type="highway.secondary" numLanes="1" speed="22.22" disallow="tram rail_urban rail rail_electric rail_fast ship">
        <param key="ref" value="D 98" />
    </edge>
    <edge id="-129506900#5" from="1428760048" to="2882091048" priority="11" type="highway.secondary" numLanes="1" speed="22.22" shape="4297.73,4085.70 4287.83,4085.48 4133.00,4091.11 4092.78,4091.09 4061.31,4089.25 4016.10,4084.29 3971.87,4076.95 3935.40,4068.37 3889.34,4054.89 3797.43,4023.98" disallow="tram rail_urban rail rail_electric rail_fast ship">
        <param key="ref" value="D 98" />
    </edge>
    <edge id="-129506901" from="462258439" to="1428759849" priority="3" type="highway.residential" numLanes="1" speed="13.89" shape="3789.15,4988.83 3800.51,4974.53 3850.31,4947.11 3902.39,4921.76 4067.59,4841.71" disallow="tram rail_urban rail rail_electric rail_fast ship" />
    <edge id="-129506905#0" from="1428759946" to="1428759865" priority="4" type="highway.unclassified" numLanes="1" speed="13.89" shape="3254.42,4168.33 3262.83,4129.07 3275.31,4073.43 3275.94,4036.90 3276.47,3980.52 3268.29,3934.51 3272.08,3894.79 3282.91,3824.87" disallow="tram rail_urban rail rail_electric rail_fast ship" />
    <edge id="-129506905#1" from="1428759800" to="1428759946" priority="4" type="highway.unclassified" numLanes="1" speed="13.89" shape="3303.68,4420.37 3290.27,4379.83 3260.00,4206.10 3253.47,4172.78 3254.42,4168.33" disallow="tram rail_urban rail rail_electric rail_fast ship" />
    <edge id="-129506907#0" from="1428759909" to="1428760014" priority="3" type="highway.residential" numLanes="1" speed="13.89" shape="3593.61,4921.29 3623.80,4968.15 3639.46,4990.97 3648.44,5002.42 3682.28,5030.94 3691.15,5037.07" disallow="tram rail_urban rail rail_electric rail_fast ship" />
    <edge id="-129506907#1" from="1428759910" to="1428759909" priority="3" type="highway.residential" numLanes="1" speed="13.89" disallow="tram rail_urban rail rail_electric rail_fast ship" />
    <edge id="-129506907#2" from="1428760023" to="1428759910" priority="3" type="highway.residential" numLanes="1" speed="13.89" shape="3552.06,4853.40 3560.07,4863.68 3575.36,4890.91" disallow="tram rail_urban rail rail_electric rail_fast ship" />
    <edge id="-129506909#0" from="1428964794" to="10305093764" priority="10" type="highway.tertiary" numLanes="1" speed="22.22" shape="4149.22,4648.73 4132.55,4678.47 4109.53,4727.91 4099.00,4749.53 4094.52,4760.26 4090.70,4771.27 4083.91,4793.40" disallow="tram rail_urban rail rail_electric rail_fast ship" />
    <edge id="-129506909#1" from="1428759855" to="1428964794" priority="10" type="highway.tertiary" numLanes="1" speed="22.22" shape="4266.88,4447.63 4239.23,4496.19 4221.43,4521.91 4160.19,4629.12 4149.22,4648.73" disallow="tram rail_urban rail rail_electric rail_fast ship" />
    <edge id="-129506909#2" from="1428760048" to="1428759855" priority="10" type="highway.tertiary" numLanes="1" speed="22.22" shape="4297.73,4085.70 4295.90,4122.93 4288.96,4220.45 4277.50,4329.29 4266.88,4447.63" disallow="tram rail_urban rail rail_electric rail_fast ship" />
    <edge id="-129506930#0" from="3577360344" to="1428762118" priority="11" type="highway.secondary" numLanes="1" speed="22.22" shape="5991.08,4352.56 5860.92,4334.32 5837.30,4331.69" disallow="tram rail_urban rail rail_electric rail_fast ship">
        <param key="ref" value="D 98" />
    </edge>
    <edge id="-129506930#1" from="3577360346" to="3577360344" priority="11" type="highway.secondary" numLanes="1" speed="22.22" shape="6044.29,4360.30 6031.43,4358.21 5991.08,4352.56" disallow="tram rail_urban rail rail_electric rail_fast ship">
        <param key="ref" value="D 98" />
    </edge>
    <edge id="-129506930#2" from="1428762090" to="3577360346" priority="11" type="highway.secondary" numLanes="1" speed="22.22" shape="6216.68,4391.76 6179.96,4382.93 6044.29,4360.30" disallow="tram rail_urban rail rail_electric rail_fast ship">
        <param key="ref" value="D 98" />
    </edge>
    <edge id="-1299368199#0" from="6869509613" to="12036597477" priority="4" type="highway.unclassified" numLanes="1" speed="13.89" disallow="tram rail_urban rail rail_electric rail_fast ship" />
    <edge id="-1299368199#1" from="2938797353" to="6869509613" priority="4" type="highway.unclassified" numLanes="1" speed="13.89" shape="4726.73,3386.86 4748.56,3374.46 4769.70,3357.39 4788.35,3337.85 4795.33,3331.62" disallow="tram rail_urban rail rail_electric rail_fast ship" />
    <edge id="-1299368199#2" from="2938797302" to="2938797353" priority="4" type="highway.unclassified" numLanes="1" speed="13.89" shape="4285.16,3241.33 4289.46,3245.08 4292.39,3247.62 4315.89,3268.10 4356.68,3305.69 4407.70,3337.34 4453.25,3359.17 4517.99,3381.31 4561.41,3390.04 4633.39,3390.77 4684.22,3392.48 4705.36,3391.28 4726.73,3386.86" disallow="tram rail_urban rail rail_electric rail_fast ship" />
    <edge id="-1299368200" from="1428762137" to="6938935534" priority="12" type="highway.primary" numLanes="1" speed="25.00" shape="5802.36,4055.34 5681.11,3962.60 5546.70,3863.58 5405.85,3757.86" disallow="tram rail_urban rail rail_electric rail_fast ship">
        <param key="ref" value="D 403" />
    </edge>
    <edge id="-1315703301" from="2420235296" to="10107273923" priority="12" type="highway.primary" numLanes="1" speed="25.00" disallow="tram rail_urban rail rail_electric rail_fast ship">
        <param key="ref" value="D 403" />
    </edge>
    <edge id="-1328235064" from="2322398424" to="462258427" priority="10" type="highway.tertiary" numLanes="1" speed="22.22" shape="3889.24,5195.36 3921.78,5206.10 3960.17,5226.46" disallow="tram rail_urban rail rail_electric rail_fast ship" />
    <edge id="-1328235065" from="462258427" to="3577267925" priority="10" type="highway.tertiary" numLanes="1" speed="22.22" shape="3960.17,5226.46 3973.63,5233.09 3988.71,5244.55" disallow="tram rail_urban rail rail_electric rail_fast ship" />
    <edge id="-133881921" from="1473221447" to="251300168" priority="12" type="highway.primary" numLanes="2" speed="27.78" shape="6911.43,4744.90 6898.31,4739.17 6864.38,4723.91 6838.73,4711.75 6821.05,4704.13" disallow="tram rail_urban rail rail_electric rail_fast ship">
        <param key="ref" value="D 403" />
    </edge>
    <edge id="-133881922#0" from="6906966439" to="1473221447" priority="12" type="highway.primary" numLanes="2" speed="27.78" disallow="tram rail_urban rail rail_electric rail_fast ship">
        <param key="ref" value="D 403" />
    </edge>
    <edge id="-133881922#1" from="251300183" to="6906966439" priority="12" type="highway.primary" numLanes="2" speed="27.78" shape="6997.61,4791.99 6995.09,4789.49 6990.88,4785.34 6980.26,4776.02 6915.46,4747.02" disallow="tram rail_urban rail rail_electric rail_fast ship">
        <param key="ref" value="D 403" />
    </edge>
    <edge id="-140834565#0" from="1542107251" to="1542107232" priority="3" type="highway.residential" numLanes="1" speed="13.89" shape="5639.84,6101.19 5672.43,6107.51 5691.17,6111.14 5745.98,6121.57 5761.64,6125.31" disallow="tram rail_urban rail rail_electric rail_fast ship" />
    <edge id="-140834565#1" from="1542107221" to="1542107251" priority="3" type="highway.residential" numLanes="1" speed="13.89" shape="5531.11,6088.69 5546.71,6088.13 5561.91,6088.04 5582.06,6090.03 5601.33,6094.11 5639.84,6101.19" disallow="tram rail_urban rail rail_electric rail_fast ship" />
    <edge id="-140834565#2" from="1542141242" to="1542107221" priority="3" type="highway.residential" numLanes="1" speed="13.89" disallow="tram rail_urban rail rail_electric rail_fast ship" />
    <edge id="-140834565#3" from="1542107219" to="1542141242" priority="3" type="highway.residential" numLanes="1" speed="13.89" shape="5409.90,6127.59 5424.12,6114.67 5439.20,6104.46 5455.79,6096.93 5474.67,6092.70 5493.85,6090.85 5501.93,6090.20 5511.11,6089.67" disallow="tram rail_urban rail rail_electric rail_fast ship" />
    <edge id="-140834565#4" from="1542107212" to="1542107219" priority="3" type="highway.residential" numLanes="1" speed="13.89" shape="5356.68,6204.20 5364.75,6192.35 5366.97,6189.10 5381.14,6168.26 5388.91,6157.27 5409.90,6127.59" disallow="tram rail_urban rail rail_electric rail_fast ship" />
    <edge id="-140834565#5" from="1542135132" to="1542107212" priority="3" type="highway.residential" numLanes="1" speed="13.89" disallow="tram rail_urban rail rail_electric rail_fast ship" />
    <edge id="-140834565#6" from="1542117227" to="1542135132" priority="3" type="highway.residential" numLanes="1" speed="13.89" shape="5301.08,6285.82 5310.31,6264.80 5321.59,6249.77 5330.53,6238.34" disallow="tram rail_urban rail rail_electric rail_fast ship" />
    <edge id="-140834565#7" from="1542107236" to="1542117227" priority="3" type="highway.residential" numLanes="1" speed="13.89" shape="5305.24,6347.96 5299.38,6328.67 5297.47,6307.94 5301.08,6285.82" disallow="tram rail_urban rail rail_electric rail_fast ship" />
    <edge id="-140834565#8" from="1542128584" to="1542107236" priority="3" type="highway.residential" numLanes="1" speed="13.89" shape="5522.73,6419.89 5505.58,6414.57 5462.84,6404.48 5433.52,6404.39 5402.42,6404.54 5385.46,6404.56 5376.70,6403.67 5360.69,6400.01 5345.41,6393.20 5331.49,6383.39 5319.05,6371.18 5312.38,6361.13 5305.24,6347.96" disallow="tram rail_urban rail rail_electric rail_fast ship" />
    <edge id="-140834565#9" from="1542592146" to="1542128584" priority="3" type="highway.residential" numLanes="1" speed="13.89" shape="5598.00,6476.95 5593.53,6470.67 5576.60,6453.95 5563.58,6443.87 5542.81,6429.82 5540.67,6428.70 5522.73,6419.89" disallow="tram rail_urban rail rail_electric rail_fast ship" />
    <edge id="-140834667#0" from="3716083917" to="1542117227" priority="3" type="highway.residential" numLanes="1" speed="13.89" shape="5221.08,6305.58 5223.38,6305.98 5244.87,6305.43 5262.70,6303.53 5275.74,6299.15 5288.27,6292.49 5301.08,6285.82" disallow="tram rail_urban rail rail_electric rail_fast ship" />
    <edge id="-140834667#1" from="1542125129" to="3716083917" priority="3" type="highway.residential" numLanes="1" speed="13.89" shape="5185.85,6296.12 5209.43,6303.53 5221.08,6305.58" disallow="tram rail_urban rail rail_electric rail_fast ship" />
    <edge id="-140834667#10" from="1542107236" to="6900282106" priority="3" type="highway.residential" numLanes="1" speed="13.89" shape="5305.24,6347.96 5293.10,6355.15 5284.68,6364.75 5277.43,6380.51 5269.94,6392.39 5266.44,6395.86" disallow="tram rail_urban rail rail_electric rail_fast ship" />
    <edge id="-140834667#2" from="1542117237" to="1542125129" priority="3" type="highway.residential" numLanes="1" speed="13.89" shape="5045.72,6262.42 5056.14,6256.91 5065.33,6254.87 5075.54,6254.85 5088.52,6255.81 5098.44,6258.02 5107.65,6260.87 5123.52,6268.42 5135.47,6276.96 5149.00,6284.42 5177.37,6293.83 5185.85,6296.12" disallow="tram rail_urban rail rail_electric rail_fast ship" />
    <edge id="-140834667#3" from="1542592240" to="1542117237" priority="3" type="highway.residential" numLanes="1" speed="13.89" shape="4984.48,6326.28 4984.08,6320.13 4984.69,6315.88 4988.31,6308.89 4992.61,6304.35 5016.99,6283.65 5037.82,6268.27 5045.72,6262.42" disallow="tram rail_urban rail rail_electric rail_fast ship" />
    <edge id="-140834667#4" from="3716083918" to="1542592240" priority="3" type="highway.residential" numLanes="1" speed="13.89" shape="5035.83,6336.01 5008.90,6341.30 5001.33,6341.36 4995.91,6340.62 4991.49,6337.53 4986.33,6330.99 4984.48,6326.28" disallow="tram rail_urban rail rail_electric rail_fast ship" />
    <edge id="-140834667#5" from="1542117246" to="3716083918" priority="3" type="highway.residential" numLanes="1" speed="13.89" shape="5121.09,6360.11 5107.17,6339.76 5096.31,6332.83 5088.70,6329.89 5081.34,6328.65 5075.33,6328.62 5035.83,6336.01" disallow="tram rail_urban rail rail_electric rail_fast ship" />
    <edge id="-140834667#6" from="3716083921" to="1542117246" priority="3" type="highway.residential" numLanes="1" speed="13.89" shape="5187.28,6384.22 5167.02,6383.03 5130.62,6370.43 5121.09,6360.11" disallow="tram rail_urban rail rail_electric rail_fast ship" />